%chk=apoCaM-CA-Ng.loop3.water3.frame754.chk
%nprocshared=20
%mem=10GB
%nosave
#b3lyp/svp scf=(tight,noincore,xqc) Test 
#IOP(5/87=12) Density=Current Pop=(MK,readradii) iop(6/33=2) iop(6/42=6)

apoCaM-CA-Ng.loop3.water3.frame754 

   0  1 
C          6.94506       21.97209       -5.86899
C          7.83479       21.11732       -6.71489
O          7.98130       21.41429       -7.89260
H          5.90683       21.93572       -6.25732
H          6.95166       21.63575       -4.81148
H          7.31560       23.01853       -5.90705
N          8.46513       20.03179       -6.18155
C          9.41755       19.22805       -6.92702
C          8.82151       17.84841       -7.19222
O          8.49796       17.13388       -6.25428
C         10.74528       19.20715       -6.14718
C         11.91440       18.62788       -6.88492
O         12.98939       18.53727       -6.31402
O         11.81357       18.19947       -8.15356
H          8.28110       19.77458       -5.19957
H          9.61682       19.72255       -7.88787
H         10.59394       18.65046       -5.19964
H         11.02773       20.24723       -5.88883
N          8.60277       17.44722       -8.47864
C          7.92072       16.21983       -8.88536
C          8.62117       14.99503       -8.32386
O          7.98405       14.22592       -7.61779
C          7.81543       16.19880      -10.43618
C          6.85616       15.14110      -11.00938
C          6.71347       15.32823      -12.53423
C          5.67647       14.37437      -13.14559
N          5.53874       14.60456      -14.58597
H          8.89316       18.08695       -9.22451
H          6.88237       16.25971       -8.48596
H          8.82531       16.09489      -10.89148
H          7.40271       17.18525      -10.74662
H          5.85608       15.28184      -10.54344
H          7.21988       14.11702      -10.77879
H          7.69951       15.16671      -13.02235
H          6.38344       16.37033      -12.74352
H          4.68931       14.54061      -12.65898
H          5.98462       13.32107      -12.96794
H          4.82604       13.94534      -14.97481
H          5.22019       15.58470      -14.76754
H          6.45139       14.43819      -15.06891
N          9.94630       14.77688       -8.55584
C         10.69244       13.68657       -7.93163
C         11.08841       14.05752       -6.50543
O         10.75556       13.29652       -5.60667
C         11.79864       13.13065       -8.87395
C         12.73019       14.14552       -9.47146
O         13.68413       14.73880       -8.74648
O         12.61518       14.44783      -10.64823
H         10.46430       15.47807       -9.10653
H         10.02200       12.80239       -7.82394
H         11.25262       12.67645       -9.73044
H         12.37554       12.31561       -8.38616
N         11.72370       15.22731       -6.20310
C         12.04956       15.62996       -4.83235
C         13.53845       15.80766       -4.59765
O         13.92306       16.04248       -3.46114
H         11.94921       15.87247       -6.96947
H         11.69929       14.86663       -4.10493
H         11.52440       16.57538       -4.58700
N         14.43481       15.67882       -5.61333
C         15.87825       15.66994       -5.46073
C         16.52910       16.75980       -6.29571
O         16.26277       16.85291       -7.48503
C         16.38772       14.30597       -5.96534
C         17.89454       14.23723       -5.95884
N         18.57751       14.13823       -7.12404
O         18.50179       14.30205       -4.90075
H         14.08965       15.51507       -6.55969
H         16.17952       15.77983       -4.39478
H         16.02019       14.15659       -7.00511
H         15.97135       13.48462       -5.34275
H         18.08068       14.10833       -8.02717
H         19.60717       14.11558       -7.12864
N         17.51571       17.52234       -5.75106
C         18.36538       18.39972       -6.53492
C         17.62699       19.58077       -7.09491
O         17.05582       20.33472       -6.31900
H         17.75438       17.39718       -4.75551
H         18.85715       17.81187       -7.34097
H         19.16832       18.79523       -5.87620
N         17.65795       19.85335       -8.43407
C         17.07073       21.07293       -8.97640
C         15.56084       21.09323       -8.82330
O         14.97891       20.11322       -8.37750
C         17.45510       21.30055      -10.46013
C         18.94433       21.34336      -10.72468
C         19.48798       20.58246      -11.77442
C         19.79868       22.16585       -9.96647
C         20.85391       20.64860      -12.06480
C         21.16749       22.21391      -10.24606
C         21.69899       21.46347      -11.29885
O         23.01768       21.53941      -11.56931
H         18.17897       19.22181       -9.06193
H         17.47410       21.92624       -8.39027
H         17.05881       22.28650      -10.77751
H         16.97365       20.52991      -11.09974
H         18.85193       19.95533      -12.38682
H         19.41584       22.76959       -9.15541
H         21.25253       20.07077      -12.88915
H         21.81443       22.84409       -9.64864
H         23.42193       21.05138      -12.30085
N         14.87403       22.22516       -9.15384
C         13.43789       22.43249       -9.00977
C         12.66351       21.50134       -9.93894
O         12.76618       20.29585       -9.79626
C         12.99027       22.31986       -7.51894
C         11.51074       22.74248       -7.30502
C         13.92186       23.12224       -6.58646
C         11.19822       24.21334       -7.61189
H         15.41144       23.03448       -9.49996
H         13.25135       23.47872       -9.32707
H         13.07280       21.25927       -7.20289
H         11.24461       22.56558       -6.24049
H         10.84999       22.10215       -7.92678
H         13.58842       23.02460       -5.53153
H         14.96003       22.73197       -6.63477
H         13.95197       24.19546       -6.86391
H         10.12725       24.41134       -7.39903
H         11.79633       24.89351       -6.97101
H         11.37978       24.45755       -8.67700
N         11.90168       22.01333      -10.95007
C         11.15931       21.20712      -11.92388
C         10.68671       22.08450      -13.06071
O          9.94002       23.02602      -12.83716
C          9.93771       20.49110      -11.32541
O         10.32779       19.32802      -10.66736
H         11.89709       23.03748      -11.06798
H         11.83657       20.43954      -12.35615
H          9.26320       20.15322      -12.14215
H          9.32842       21.16573      -10.67808
H         10.54341       19.59594       -9.74989
N         11.09138       21.79275      -14.32917
C         10.73866       22.58061      -15.50287
C         11.31088       21.90101      -16.74473
O         12.49520       21.59456      -16.72209
C         11.32350       23.98913      -15.39874
H         11.68014       20.95615      -14.46190
H          9.63912       22.65840      -15.54122
H         10.90699       24.53767      -14.53015
H         12.42902       23.95133      -15.30083
H         11.05917       24.54945      -16.31486
N         10.59057       21.58544      -17.86221
C          9.22077       21.98157      -18.17332
C          9.20999       22.63694      -19.55301
O          9.75286       22.03047      -20.46833
C          8.31598       20.75348      -18.16995
H         11.08308       21.03142      -18.58243
H          8.82479       22.66686      -17.41736
H          8.65405       20.00293      -18.91433
H          8.32308       20.29191      -17.15918
H          7.27356       21.05971      -18.40540
N          8.65975       23.85670      -19.83291
C          7.84165       24.65350      -18.92871
C          8.62986       25.71991      -18.18864
O          8.05224       26.35277      -17.31312
C          6.59903       25.26683      -19.63609
C          6.79217       26.44435      -20.63090
C          7.11739       26.09392      -22.06663
O          6.28602       26.30759      -22.93582
O          8.33061       25.64926      -22.43414
H          8.79250       24.19999      -20.78376
H          7.40851       23.98035      -18.16442
H          5.99495       25.69482      -18.80439
H          5.96919       24.47776      -20.10122
H          7.50661       27.19805      -20.23693
H          5.79969       26.94587      -20.67461
N          9.93494       25.99118      -18.46404
C         10.65944       27.02134      -17.74887
H         11.69863       27.09273      -18.13164
H         10.15739       28.00262      -17.88501
H         10.69321       26.78638      -16.66415
H         10.43261       25.47231      -19.20210
Ca        13.55148       16.96038       -8.80490
O         14.93411       18.87203      -11.57315
H         14.31272       19.41059      -12.12471
H         15.19356       18.11660      -12.15798
O         12.29945       17.43150      -11.76154
H         11.65728       16.76798      -11.40624
H         11.81098       17.87746      -12.49801
O         16.29117       16.15337      -10.28225
H         16.21931       15.78708      -11.19888
H         17.04599       16.79306      -10.32580

Ca 1.0



