%chk=apoCaM-CA-Ng.loop1.water3.frame1085.chk
%nprocshared=20
%mem=10GB
%nosave
#b3lyp/svp scf=(tight,noincore,xqc) Test 
#IOP(5/87=12) Density=Current Pop=(MK,readradii) iop(6/33=2) iop(6/42=6)

apoCaM-CA-Ng.loop1.water3.frame1085 

   0  1 
C         43.31257       57.89912       38.25405
C         42.62596       57.82558       39.58499
O         41.44348       58.13000       39.64470
H         44.37691       57.59413       38.32713
H         42.79579       57.23189       37.53357
H         43.27038       58.94316       37.87586
N         43.31396       57.46106       40.70714
C         42.70887       57.43601       42.03741
C         43.28963       58.55637       42.87556
O         43.72439       58.35186       44.00088
C         42.82947       56.03249       42.67340
C         44.23873       55.53815       42.91405
O         44.42064       54.31225       43.43885
O         45.21522       56.22363       42.65336
H         44.31777       57.24938       40.61598
H         41.62615       57.66421       41.96031
H         42.32065       55.30862       42.00145
H         42.29346       56.03196       43.64690
N         43.32951       59.79956       42.33272
C         43.87700       60.96927       42.99618
C         42.87451       61.52325       43.99984
O         43.26657       61.66050       45.15011
C         44.40576       61.98943       41.95745
C         45.47774       61.29971       41.07840
C         46.08200       62.19281       39.99396
C         46.98558       61.33831       39.08385
N         47.58957       62.13464       38.01908
H         43.01353       59.89977       41.35794
H         44.79530       60.67137       43.55587
H         44.86552       62.85291       42.48737
H         43.58368       62.37018       41.31781
H         45.01422       60.43339       40.56399
H         46.30173       60.91710       41.72246
H         46.66397       63.01573       40.46368
H         45.26746       62.62980       39.37742
H         46.37201       60.53059       38.62237
H         47.79027       60.85813       39.68483
H         48.13673       61.49977       37.39279
H         46.84625       62.60543       37.45413
H         48.23535       62.84700       38.42891
N         41.55684       61.79905       43.73421
C         40.84982       61.63074       42.46276
C         39.95298       60.40203       42.49756
O         39.85310       59.75434       43.52880
C         40.12324       62.93515       42.05893
C         39.45195       63.71885       43.17171
O         38.37712       63.31189       43.88556
O         39.91635       64.81457       43.44414
H         40.98082       62.08708       44.54046
H         41.55144       61.41793       41.64362
H         39.42895       62.76242       41.21190
H         40.92542       63.60486       41.67346
N         39.37441       59.93878       41.34902
C         38.65998       58.66931       41.30011
C         37.30875       58.73810       41.95454
O         36.81036       59.82919       42.16764
H         39.53265       60.44437       40.46407
H         39.28653       57.88321       41.76977
H         38.48359       58.37014       40.24449
N         36.64304       57.59412       42.28767
C         35.28568       57.59002       42.83889
C         34.44408       56.49282       42.18516
O         35.01599       55.61158       41.55861
C         35.35034       57.47603       44.38278
C         36.00145       58.71989       44.91091
O         37.05755       58.65992       45.51695
O         35.47386       59.91761       44.58458
H         37.13625       56.69524       42.17283
H         34.80608       58.55243       42.58460
H         35.91698       56.56615       44.67934
H         34.35475       57.40963       44.84841
N         33.07703       56.45269       42.24522
C         32.22735       57.45320       42.87184
C         32.26289       58.79424       42.17206
O         32.85445       58.92965       41.10923
H         32.59923       55.65179       41.80288
H         32.48998       57.56735       43.93434
H         31.17130       57.10743       42.84820
N         31.61539       59.84494       42.74391
C         31.53749       61.17761       42.15336
C         32.91265       61.78991       41.93337
O         33.81287       61.55630       42.72566
C         30.65886       62.09070       43.04192
C         30.42685       63.46938       42.42005
O         31.24608       62.23365       44.31052
H         31.13683       59.67497       43.64272
H         31.03010       61.08094       41.16763
H         29.66840       61.58673       43.13777
H         30.52351       62.49828       44.93760
H         29.71286       64.03645       43.04987
H         31.37739       64.03899       42.35437
H         29.98753       63.36908       41.40601
N         33.11171       62.61562       40.86253
C         34.35895       63.29069       40.51686
C         34.76278       64.29449       41.60085
O         35.06190       63.90572       42.72002
C         35.48536       62.27189       40.15409
C         34.99874       61.33392       39.01131
C         36.77559       63.00983       39.73919
C         35.97779       60.21800       38.63706
H         32.31509       62.78265       40.22910
H         34.16468       63.86638       39.58378
H         35.71127       61.66413       41.04773
H         34.77921       61.93460       38.10137
H         34.05974       60.83151       39.32505
H         36.59928       63.62813       38.83289
H         37.13431       63.66988       40.55554
H         37.59789       62.29646       39.52960
H         36.18388       59.57565       39.51560
H         35.52396       59.58545       37.84441
H         36.92986       60.61826       38.23545
N         34.85119       65.62011       41.29132
C         35.38567       66.63222       42.20483
C         34.44210       67.06048       43.33312
O         34.88463       67.83407       44.17209
C         35.81224       67.89758       41.40131
C         34.62467       68.64957       40.77373
O         36.70534       67.53857       40.37807
H         34.65667       65.88798       40.31620
H         36.31258       66.21415       42.65691
H         36.31447       68.62107       42.08547
H         37.57806       67.34652       40.80992
H         34.06427       68.01647       40.05608
H         33.92003       69.00173       41.55609
H         34.99513       69.54047       40.22423
N         33.12370       66.70670       43.37447
C         32.18658       67.31975       44.32414
C         32.50115       66.93797       45.76010
O         32.35857       65.77315       46.10447
C         30.72602       66.93419       43.97947
C         29.70190       67.55980       44.93397
O         30.42175       67.35639       42.67315
H         32.75910       66.07721       42.64604
H         32.26716       68.42440       44.20972
H         30.61389       65.83158       44.07261
H         30.54022       66.57710       42.07018
H         29.76539       68.66771       44.90299
H         28.67786       67.24959       44.63522
H         29.86542       67.21654       45.97743
N         32.91703       67.88448       46.65847
C         33.17719       67.60909       48.06928
C         34.13354       66.44137       48.19893
O         33.75704       65.39769       48.71689
C         31.86263       67.39860       48.85876
C         31.00298       68.67686       48.89369
C         29.81189       68.51644       49.85435
C         29.00436       69.81329       50.04905
N         28.32682       70.24585       48.82674
H         33.07898       68.84733       46.32664
H         33.66840       68.49368       48.53444
H         32.14460       67.15925       49.90880
H         31.27554       66.54736       48.45167
H         30.65441       68.91823       47.86772
H         31.62911       69.51762       49.26601
H         30.20996       68.23567       50.85462
H         29.14276       67.70028       49.50635
H         29.67317       70.62368       50.41671
H         28.23697       69.62867       50.83375
H         27.68657       69.49233       48.48654
H         27.75878       71.09765       49.04082
H         29.01909       70.49255       48.08505
N         35.40470       66.56176       47.72844
C         36.35752       65.46121       47.71729
C         36.85128       65.23400       46.29155
O         36.45798       64.22109       45.73466
C         37.46256       65.67228       48.76684
C         36.89360       65.59458       50.19297
C         37.96858       65.81414       51.21616
O         38.57272       66.87431       51.25521
O         38.26140       64.84751       52.10669
H         35.69477       67.47613       47.35790
H         35.84327       64.51715       48.01128
H         37.93377       66.66332       48.64075
H         38.22907       64.87391       48.65439
H         36.43897       64.59114       50.34972
H         36.10585       66.36394       50.34007
N         37.66168       66.07568       45.58019
C         38.31058       67.27000       46.07387
H         38.89121       67.74085       45.25235
H         37.58008       68.01399       46.43729
H         39.04843       67.00657       46.85633
H         37.86152       65.82742       44.60071
Ca        36.84807       61.67402       44.21163
O         39.28423       60.65557       46.26578
H         39.36717       59.67030       46.29168
H         38.79325       60.83266       45.42891
O         36.28256       61.64056       47.35383
H         37.23362       61.70360       47.62017
H         35.78263       61.72093       48.20423
O         33.91369       62.84474       45.45749
H         33.77545       63.77579       45.15101
H         33.39657       62.78022       46.29882

Ca 1.0



