%chk=apoCaM-CA-Ng.loop3.water3.frame914.chk
%nprocshared=20
%mem=10GB
%nosave
#b3lyp/svp scf=(tight,noincore,xqc) Test 
#IOP(5/87=12) Density=Current Pop=(MK,readradii) iop(6/33=2) iop(6/42=6)

apoCaM-CA-Ng.loop3.water3.frame914 

   0  1 
C         -4.97664       -3.97717       25.24487
C         -5.29657       -5.35095       24.75270
O         -4.46860       -5.94236       24.07430
H         -3.96886       -3.66583       24.89513
H         -5.73425       -3.25655       24.87892
H         -4.97472       -3.98654       26.35591
N         -6.48117       -5.93726       25.08647
C         -6.78594       -7.32650       24.77358
C         -8.01672       -7.42169       23.86824
O         -8.71911       -6.43245       23.70979
C         -6.95023       -8.04407       26.13870
C         -6.80226       -9.52994       26.15420
O         -6.86426      -10.17677       27.33420
O         -6.55206      -10.15341       25.14138
H         -7.16289       -5.40016       25.64592
H         -5.92686       -7.76790       24.23246
H         -7.91877       -7.75095       26.60060
H         -6.13533       -7.69442       26.80931
N         -8.31551       -8.58215       23.21423
C         -9.49170       -8.78140       22.36370
C        -10.43341       -9.83269       22.94252
O        -11.53338       -9.98353       22.42921
C         -9.06192       -9.15657       20.92818
C         -8.28699      -10.48892       20.85147
C         -7.83458      -10.79254       19.42208
C         -7.02097      -12.09360       19.37724
N         -6.56252      -12.37471       18.01849
H         -7.67056       -9.36741       23.32057
H        -10.07453       -7.83589       22.31311
H         -8.42368       -8.33715       20.53206
H         -9.96641       -9.22936       20.28421
H         -8.92673      -11.32083       21.21966
H         -7.37885      -10.43929       21.48225
H         -7.19825       -9.95682       19.05672
H         -8.72353      -10.88375       18.76065
H         -7.64801      -12.93931       19.73781
H         -6.13634      -12.00415       20.04797
H         -7.38108      -12.47981       17.37669
H         -5.94717      -11.59872       17.68145
H         -6.01682      -13.26643       18.02035
N        -10.07093      -10.57892       24.02285
C        -10.93329      -11.51215       24.72060
C        -11.16600      -10.98196       26.12911
O        -12.31531      -10.84325       26.52467
C        -10.38844      -12.97093       24.62655
C         -8.96028      -13.32252       25.02814
O         -8.59335      -14.47802       24.89435
O         -8.09233      -12.41618       25.52182
H         -9.13403      -10.46445       24.41232
H        -11.93787      -11.56114       24.23950
H        -10.47693      -13.26474       23.55742
H        -11.08100      -13.62323       25.20404
N        -10.12170      -10.60183       26.91575
C        -10.23759      -10.06182       28.25519
C         -9.60297      -10.98718       29.27346
O         -9.62366      -10.65143       30.44806
H         -9.17233      -10.68328       26.55665
H        -11.30115       -9.91751       28.54025
H         -9.73806       -9.06851       28.28019
N         -9.07639      -12.19485       28.90711
C         -8.62486      -13.20964       29.84615
C         -7.20606      -13.66239       29.53892
O         -6.79141      -13.59781       28.39836
C         -9.58354      -14.40300       29.66430
C         -9.26028      -15.57635       30.54571
N         -8.90894      -16.76416       29.99935
O         -9.31649      -15.45606       31.75987
H         -9.07568      -12.47282       27.91740
H         -8.67834      -12.83826       30.89286
H         -9.54340      -14.72143       28.59712
H        -10.62494      -14.07461       29.87255
H         -8.85061      -16.87980       28.97622
H         -8.68717      -17.57121       30.59907
N         -6.44682      -14.24923       30.50409
C         -5.17122      -14.90362       30.24866
C         -4.12246      -13.99299       29.65132
O         -3.83373      -12.95501       30.23007
H         -6.81796      -14.29495       31.46478
H         -5.33980      -15.77631       29.58147
H         -4.78043      -15.29402       31.21278
N         -3.46623      -14.36253       28.50871
C         -2.35860      -13.59839       27.94068
C         -2.87430      -12.51635       26.95190
O         -4.03373      -11.89824       27.43032
C         -1.38323      -14.55258       27.19731
C         -0.67533      -15.55024       28.08262
C         -0.89704      -16.92795       27.91946
C          0.26137      -15.11631       29.03762
C         -0.19434      -17.85494       28.69549
C          0.96823      -16.04622       29.80848
C          0.74547      -17.41690       29.63933
O          1.44368      -18.30125       30.38052
H         -3.69383      -15.27694       28.08886
H         -1.80288      -13.09346       28.76359
H         -0.57344      -13.99761       26.68669
H         -1.95770      -15.08114       26.40844
H         -1.60667      -17.28709       27.18500
H          0.46313      -14.06052       29.16914
H         -0.37327      -18.91340       28.55415
H          1.69909      -15.70185       30.52991
H          1.32960      -19.25774       30.28396
N         -1.79159      -11.52904       26.72545
C         -2.07728      -10.25930       26.02229
C         -2.85109      -10.49548       24.74052
O         -3.99256      -10.91646       24.82046
C         -2.79084       -9.20794       26.93357
C         -2.93038       -7.82269       26.24423
C         -2.10052       -9.07039       28.30197
C         -1.61187       -7.09751       25.94211
H         -1.03772      -11.99823       26.17763
H         -1.08270       -9.83257       25.77057
H         -3.82632       -9.54852       27.13658
H         -3.53772       -7.15822       26.89694
H         -3.48723       -7.95095       25.29396
H         -1.04239       -8.75584       28.19584
H         -2.63997       -8.32618       28.92719
H         -2.12125      -10.03821       28.84550
H         -1.83293       -6.12250       25.45932
H         -1.04762       -6.88823       26.87406
H         -0.97355       -7.67807       25.24704
N         -2.30389      -10.25163       23.51514
C         -3.08767      -10.43140       22.29825
C         -2.22878      -10.35517       21.05651
O         -1.66390       -9.30666       20.77937
C         -4.18553       -9.35337       22.20895
O         -4.92462       -9.51289       21.02952
H         -1.31759       -9.95606       23.45163
H         -3.55948      -11.43843       22.32927
H         -3.69952       -8.34870       22.22051
H         -4.87127       -9.42957       23.07297
H         -5.44438       -8.67519       20.91343
N         -2.12693      -11.44540       20.23998
C         -1.44840      -11.41696       18.95101
C         -2.38044      -11.93524       17.85004
O         -3.40454      -12.51233       18.17902
C         -0.20653      -12.31057       19.02845
H         -2.56329      -12.33162       20.53614
H         -1.14173      -10.37596       18.73491
H          0.47082      -11.94885       19.83017
H         -0.50044      -13.35818       19.25912
H          0.35651      -12.30684       18.07522
N         -2.09757      -11.83500       16.51377
C         -1.01272      -11.04742       15.94384
C          0.07548      -11.92997       15.36102
O         -0.16510      -13.11923       15.18844
C         -1.60854      -10.11756       14.87795
H         -2.73325      -12.31368       15.85353
H         -0.54348      -10.44003       16.73153
H         -0.85098       -9.46353       14.41796
H         -2.07683      -10.71902       14.06770
H         -2.39008       -9.47202       15.33149
N          1.34354      -11.47995       15.11374
C          1.83047      -10.11875       15.36125
C          2.78145      -10.06995       16.54893
O          3.20821       -8.97207       16.89178
C          2.55553       -9.58053       14.11139
C          1.63451       -9.42253       12.89731
C          2.41064       -8.92775       11.71091
O          3.31958       -9.59818       11.24711
O          2.10634       -7.74136       11.15106
H          2.03640      -12.16968       14.78326
H          1.00860       -9.42768       15.61815
H          3.39272      -10.27071       13.86394
H          2.98591       -8.57898       14.33713
H          0.84216       -8.68321       13.13846
H          1.15851      -10.39195       12.63751
N          3.16028      -11.17991       17.24162
C          4.05816      -11.09739       18.37331
H          5.02368      -10.64499       18.05949
H          3.60228      -10.47509       19.17315
H          4.25590      -12.11148       18.77906
H          2.81858      -12.11384       16.97214
Ca        -5.87566      -12.61121       26.17247
O         -6.08238      -15.99752       26.47403
H         -6.64266      -15.19837       26.31940
H         -6.55314      -16.48800       27.19306
O         -3.86488      -14.36273       24.51546
H         -3.80748      -15.30761       24.80555
H         -2.92949      -14.10206       24.32145
O         -6.37294      -13.04960       22.94652
H         -5.61693      -13.53738       22.53390
H         -7.17983      -13.45852       22.54386

Ca 1.0



