%chk=apoCaM-CA-Ng.loop4.water7.frame903.chk
%nprocshared=20
%mem=10GB
%nosave
#b3lyp/svp scf=(tight,noincore,xqc) Test 
#IOP(5/87=12) Density=Current Pop=(MK,readradii) iop(6/33=2) iop(6/42=6)

apoCaM-CA-Ng.loop4.water7.frame903 

   -3  1 
C         79.53480       -8.54360       42.61801
C         79.31320      -10.00584       42.87479
O         80.28591      -10.72541       43.04701
H         80.14777       -8.40869       41.70482
H         78.57411       -8.00512       42.47891
H         80.06900       -8.09372       43.48137
N         78.04731      -10.51240       42.94260
C         77.73097      -11.90805       43.23194
C         78.32931      -12.28733       44.58058
O         79.09266      -13.23614       44.67129
C         78.19571      -12.80795       42.06129
C         77.70977      -14.22288       42.20216
O         78.50677      -15.14563       42.25816
O         76.38830      -14.48065       42.23985
H         77.25203       -9.86760       42.81662
H         76.62325      -11.99041       43.30473
H         79.30451      -12.79372       41.98154
H         77.78222      -12.40695       41.11078
N         78.08576      -11.49607       45.66118
C         78.79782      -11.63733       46.92940
C         78.28704      -12.81442       47.76050
O         77.07879      -12.98456       47.83969
C         78.77990      -10.30662       47.75291
C         77.36035       -9.88188       48.22279
C         79.47852       -9.19210       46.94286
C         77.36270       -8.63937       49.11723
H         77.48235      -10.67468       45.51422
H         79.86822      -11.79325       46.68457
H         79.39533      -10.47867       48.66385
H         76.91743      -10.69996       48.82626
H         76.69356       -9.68769       47.35767
H         78.90399       -8.93068       46.02985
H         79.61408       -8.27491       47.54849
H         80.49451       -9.52077       46.63612
H         78.00912       -8.80406       50.00535
H         77.71165       -7.74278       48.56649
H         76.32871       -8.43266       49.46488
N         79.11187      -13.62353       48.50033
C         80.56851      -13.49876       48.54016
C         81.23508      -14.15543       47.33770
O         82.42141      -13.93379       47.13823
C         81.15440      -14.01337       49.87517
C         80.98063      -15.48497       50.15348
O         81.46294      -15.99268       51.30354
O         80.41750      -16.22496       49.36266
H         78.66337      -14.32339       49.11183
H         80.81981      -12.41740       48.54091
H         80.67850      -13.44548       50.70444
H         82.24339      -13.78920       49.89464
N         80.53875      -14.96504       46.48627
C         81.10447      -15.51605       45.26704
C         82.24270      -16.48642       45.47804
O         82.60712      -16.79934       46.60331
H         79.54440      -15.16565       46.66639
H         81.45774      -14.67799       44.62965
H         80.30652      -16.05805       44.71297
N         82.84560      -17.01252       44.37461
C         83.92544      -17.99587       44.41426
C         85.20384      -17.49959       45.08564
O         86.08243      -18.31980       45.31530
C         84.23921      -18.50988       42.98467
C         84.80916      -17.45852       42.05753
O         84.17834      -16.44871       41.78889
O         86.01343      -17.64931       41.48687
H         82.46435      -16.73009       43.46009
H         83.54956      -18.86061       45.00526
H         83.30635      -18.91112       42.53348
H         84.96137      -19.35076       43.05269
N         85.39690      -16.19158       45.42572
C         86.59333      -15.71474       46.10338
C         87.87021      -15.78212       45.28235
O         88.89119      -15.37094       45.81260
H         84.66231      -15.49658       45.23502
H         86.72722      -16.28585       47.04800
H         86.44383      -14.64629       46.37258
N         87.90598      -16.24716       43.99465
C         89.11025      -16.29790       43.16308
C         89.63104      -14.91629       42.79386
O         90.66594      -14.84790       42.14245
C         90.21069      -17.18946       43.79839
C         89.73072      -18.63011       44.04184
C         89.34012      -19.30938       42.75201
N         88.07047      -19.72909       42.54913
O         90.17796      -19.47177       41.87716
H         87.04273      -16.58206       43.55608
H         88.84193      -16.76258       42.18890
H         90.56196      -16.76065       44.75846
H         91.09372      -17.22689       43.12260
H         88.87592      -18.61280       44.75102
H         90.54707      -19.21638       44.51566
H         87.34954      -19.59273       43.27073
H         87.80316      -20.18048       41.66193
N         88.94238      -13.77728       43.09948
C         89.37950      -12.44278       42.70910
C         88.40781      -11.78772       41.73376
O         88.70131      -10.68247       41.30362
C         89.55641      -11.53783       43.96708
C         88.23768      -11.31062       44.73583
C         90.61767      -12.10798       44.91575
H         88.04910      -13.84779       43.60251
H         90.35865      -12.49553       42.18356
H         89.91858      -10.54219       43.62677
H         87.47021      -10.85451       44.07694
H         87.83383      -12.25642       45.15239
H         88.40541      -10.61263       45.58291
H         90.76915      -11.41961       45.77485
H         90.30781      -13.09809       45.31012
H         91.58601      -12.21865       44.38442
N         87.21466      -12.36568       41.38553
C         86.19994      -11.66022       40.60751
C         85.77111      -12.50274       39.39931
O         86.28540      -13.59696       39.22078
C         85.04924      -11.33701       41.59739
C         84.18862      -10.13317       41.28497
N         83.22572       -9.76620       42.16147
O         84.38442       -9.44967       40.29241
H         86.95265      -13.28610       41.76260
H         86.61426      -10.69785       40.24078
H         85.51500      -11.06049       42.56903
H         84.43507      -12.24715       41.77321
H         83.06749      -10.30753       43.02425
H         82.65123       -8.92837       41.98918
N         84.83228      -12.04382       38.52332
C         84.37724      -12.76375       37.33637
C         84.59682      -11.89897       36.11042
O         84.27683      -10.71954       36.15844
C         82.88388      -13.16680       37.42845
C         81.91553      -12.01593       37.58075
C         81.80487      -11.33298       38.80179
C         81.10016      -11.62677       36.50334
C         80.91289      -10.26913       38.93929
C         80.20986      -10.55732       36.64120
C         80.11455       -9.87412       37.85803
O         79.25307       -8.84527       37.97922
H         84.42335      -11.12215       38.68749
H         84.92824      -13.72143       37.20925
H         82.72157      -13.88703       38.25913
H         82.65292      -13.71551       36.48708
H         82.40185      -11.63003       39.65284
H         81.16259      -12.14237       35.55322
H         80.84422       -9.75531       39.88718
H         79.59507      -10.25898       35.80177
H         79.15807       -8.34738       38.80370
N         85.07829      -12.43708       34.95217
C         85.26384      -11.65389       33.73672
C         84.27474      -12.15116       32.68728
O         84.48416      -13.23837       32.16768
C         86.73147      -11.79511       33.28468
C         87.09284      -10.91040       32.08721
C         88.53440      -11.11131       31.71010
O         89.40222      -10.08414       31.78116
O         88.92667      -12.20671       31.33882
H         85.28413      -13.44746       34.91797
H         85.08458      -10.58272       33.94545
H         86.93697      -12.86250       33.04232
H         87.38896      -11.50772       34.13533
H         86.92759       -9.84606       32.36267
H         86.45568      -11.15544       31.21147
N         83.11601      -11.49167       32.37192
C         82.65233      -10.26889       33.02047
C         83.34850       -9.04005       32.47304
O         83.37029       -8.84900       31.26441
C         81.11406      -10.10741       32.95129
C         80.49856       -9.87231       31.56329
C         79.02374       -9.62814       31.70208
O         78.58630       -8.58097       32.42685
O         78.21763      -10.36444       31.15740
H         82.47486      -11.96457       31.71643
H         82.82375      -10.36083       34.11250
H         80.85532       -9.23605       33.59497
H         80.64222      -11.00852       33.40205
H         80.68181      -10.74804       30.90634
H         80.93040       -8.96896       31.08913
N         83.89086       -8.12368       33.31870
C         84.47456       -6.89124       32.83631
H         85.33901       -7.10914       32.17555
H         83.71228       -6.31154       32.27020
H         84.81633       -6.27306       33.69295
H         83.85112       -8.28143       34.33689
Ca        76.01141       -8.25210       33.71130
O         74.56282       -9.26625       36.14176
H         74.29897       -8.43867       36.61676
H         75.25325       -9.67618       36.72103
O         74.22141       -6.94437       31.71997
H         73.44824       -7.50828       31.46642
H         74.29345       -6.27515       30.99424
O         77.26260      -11.02141       34.50352
H         76.43862      -11.39650       34.90420
H         77.49425      -11.65096       33.77541
O         74.62973       -5.75818       34.80897
H         73.71908       -6.08713       34.60189
H         74.75749       -5.97003       35.76753
O         74.49179      -10.28133       32.15812
H         73.58509      -10.67654       32.19816
H         74.98996      -10.85757       31.52581
O         77.74125       -7.12693       35.98825
H         77.43983       -8.06003       36.12641
H         77.14729       -6.58774       36.56828
O         77.18637       -5.66083       32.15576
H         77.13066       -5.29972       33.07604
H         78.14792       -5.85671       32.02414

Ca 1.0



