%chk=apoCaM-CA-Ng.loop3.water3.frame935.chk
%nprocshared=20
%mem=10GB
%nosave
#b3lyp/svp scf=(tight,noincore,xqc) Test 
#IOP(5/87=12) Density=Current Pop=(MK,readradii) iop(6/33=2) iop(6/42=6)

apoCaM-CA-Ng.loop3.water3.frame935 

   0  1 
C         56.92579       97.38167       71.93989
C         55.46569       97.70796       71.85420
O         54.65927       96.86618       72.22348
H         57.55266       98.23083       71.59689
H         57.18776       97.15264       72.99463
H         57.14640       96.49497       71.31010
N         55.04828       98.91584       71.37623
C         53.64398       99.30742       71.31602
C         53.23125       99.51824       69.85959
O         54.10710       99.62084       69.00984
C         53.48868      100.58861       72.17495
C         52.09722      100.97075       72.59282
O         51.92355      102.07579       73.34092
O         51.13594      100.27012       72.33558
H         55.75577       99.59600       71.05581
H         53.02569       98.50219       71.75077
H         53.96915      101.43900       71.64390
H         54.03968      100.44148       73.12679
N         51.91709       99.58238       69.49195
C         51.47200       99.86620       68.12750
C         50.73695      101.19953       68.03844
O         50.53852      101.67381       66.92917
C         50.57937       98.72535       67.57127
C         49.26455       98.55069       68.36697
C         48.26668       97.56098       67.74656
C         48.77309       96.11393       67.70896
N         47.72784       95.21156       67.22486
H         51.20270       99.42633       70.20808
H         52.35935       99.96092       67.46415
H         51.15504       97.77545       67.57728
H         50.32579       98.96737       66.51565
H         48.73838       99.52770       68.41083
H         49.48762       98.22853       69.40385
H         47.99521       97.89363       66.72098
H         47.34755       97.58874       68.37276
H         49.06172       95.80328       68.73334
H         49.66179       96.03749       67.04617
H         47.43065       95.48415       66.26002
H         48.09934       94.23448       67.20481
H         46.90317       95.24168       67.86852
N         50.24985      101.82897       69.14874
C         49.50906      103.08170       69.11346
C         50.11733      104.12625       70.05093
O         49.56313      105.21333       70.13772
C         48.01567      102.78778       69.38034
C         47.73370      102.07451       70.67025
O         47.24437      100.95641       70.65953
O         47.97323      102.67636       71.84182
H         50.34136      101.38457       70.06933
H         49.53797      103.52848       68.09540
H         47.65657      102.14149       68.54831
H         47.42740      103.72953       69.34864
N         51.28782      103.90752       70.72732
C         51.94992      104.92771       71.52698
C         51.25571      105.28725       72.82636
O         51.74777      106.19447       73.48261
H         51.79715      103.02208       70.60532
H         52.06817      105.84156       70.90351
H         52.96916      104.57480       71.79619
N         50.13539      104.64539       73.27593
C         49.43850      105.02600       74.50150
C         49.34310      103.82426       75.48392
O         48.27902      102.98548       75.12740
C         48.03881      105.57706       74.14648
C         48.12476      106.74591       73.19702
N         47.58529      106.66758       71.95695
O         48.69115      107.77010       73.54771
H         49.74818      103.87814       72.72323
H         50.00192      105.83676       75.01417
H         47.50679      105.89634       75.06831
H         47.44124      104.77167       73.66786
H         47.11242      105.80923       71.63674
H         47.65038      107.46374       71.30588
N         49.16460      104.31671       76.85560
C         48.77010      103.31253       77.85847
C         49.70288      102.11809       77.96426
O         50.90885      102.29913       78.05172
H         50.06105      104.76331       77.15971
H         47.72194      102.98710       77.68132
H         48.77173      103.82274       78.84580
N         49.18068      100.86028       78.07056
C         49.98664       99.65575       78.29417
C         50.69472       99.21193       77.01715
O         50.53567       99.86364       75.99989
C         49.07998       98.51137       78.81594
C         48.39195       98.85241       80.12101
C         46.98898       98.85793       80.20081
C         49.14191       99.14441       81.27567
C         46.34881       99.14923       81.40961
C         48.49900       99.43914       82.48260
C         47.10257       99.44072       82.55532
O         46.49804       99.71870       83.72834
H         48.15274      100.76946       78.08368
H         50.74860       99.86394       79.07669
H         49.67743       97.59662       79.00459
H         48.32936       98.26543       78.03292
H         46.38824       98.63065       79.32935
H         50.22390       99.14020       81.24731
H         45.26708       99.14448       81.45501
H         49.08740       99.66163       83.36436
H         45.53472       99.72238       83.82330
N         51.47111       98.08132       77.00376
C         52.16769       97.51590       75.84053
C         51.24011       97.14846       74.67856
O         50.51790       98.00530       74.19226
C         53.43125       98.32659       75.35347
C         54.73189       97.48636       75.49579
C         53.63001       99.72621       75.96516
C         55.15518       97.19662       76.94103
H         51.56622       97.55277       77.88295
H         52.56214       96.53682       76.18258
H         53.32669       98.48136       74.25871
H         55.56943       98.01784       74.99335
H         54.59224       96.51818       74.96605
H         54.55954      100.18450       75.56388
H         52.81124      100.41151       75.68638
H         53.71035       99.67908       77.07051
H         55.39002       98.13616       77.48070
H         54.37009       96.64696       77.49833
H         56.07182       96.57007       76.93248
N         51.29729       95.90118       74.11085
C         50.54150       95.53651       72.91475
C         49.99623       94.11582       72.99424
O         50.77664       93.17535       73.05178
C         51.45157       95.65580       71.68651
O         50.74353       95.30623       70.52998
H         51.99725       95.22935       74.46034
H         49.70192       96.24896       72.76271
H         52.33580       94.98992       71.81593
H         51.79165       96.70358       71.59199
H         51.42154       95.11736       69.83062
N         48.65226       93.89653       72.94890
C         48.02205       92.57832       72.86773
C         47.05774       92.58173       71.67570
O         46.31343       93.54521       71.55593
C         47.28139       92.29457       74.17021
H         48.02995       94.71962       72.95969
H         48.78386       91.77891       72.77704
H         46.82178       91.28407       74.12977
H         48.00899       92.30436       75.01170
H         46.49606       93.05348       74.36132
N         46.98604       91.59902       70.72602
C         47.59587       90.28141       70.83890
C         46.76489       89.44849       71.81069
O         45.57504       89.71412       71.92162
C         47.60821       89.58267       69.47289
H         46.33896       91.75292       69.93538
H         48.65471       90.39302       71.13789
H         48.19361       90.18892       68.74868
H         48.08402       88.58160       69.55017
H         46.57697       89.45509       69.07887
N         47.26693       88.44272       72.57863
C         48.63916       87.96872       72.56145
C         49.30373       88.40579       73.84983
O         50.30804       89.10079       73.78382
C         48.63937       86.44259       72.34047
C         50.04368       85.88749       72.07039
C         49.98123       84.41697       71.76617
O         49.52326       83.55213       72.69128
O         50.34441       83.99875       70.67789
H         46.61780       87.98580       73.23961
H         49.20017       88.40850       71.71488
H         48.02117       86.22902       71.43947
H         48.17231       85.92559       73.20811
H         50.70501       86.05293       72.94632
H         50.47587       86.41965       71.19334
N         48.75346       88.09880       75.05987
C         49.27574       88.58700       76.32058
H         50.18734       89.20750       76.19217
H         48.50204       89.21442       76.81381
H         49.51701       87.72985       76.98108
H         47.89698       87.52717       75.09901
Ca        49.12035      101.18084       74.04799
O         46.05445      101.56076       73.80284
H         45.13646      101.19246       73.80401
H         45.94256      102.50506       73.52647
O         47.36793       98.81045       75.28661
H         47.67782       97.88918       75.09738
H         46.43531       98.69959       75.59982
O         48.02001       98.40445       72.29667
H         47.66291       97.53030       71.99896
H         48.60965       98.69747       71.55825

Ca 1.0



