%chk=apoCaM-CA-Ng.loop2.water4.frame1492.chk
%nprocshared=20
%mem=10GB
%nosave
#b3lyp/svp scf=(tight,noincore,xqc) Test 
#IOP(5/87=12) Density=Current Pop=(MK,readradii) iop(6/33=2) iop(6/42=6)

apoCaM-CA-Ng.loop2.water4.frame1492 

   -2  1 
C         36.36909       76.33519       28.62670
C         37.42067       75.93256       29.62615
O         37.73646       76.75939       30.46908
H         35.44793       76.62470       29.17522
H         36.72872       77.20844       28.04431
H         36.08436       75.53540       27.92482
N         38.01075       74.70138       29.66335
C         37.75060       73.61055       28.72790
C         38.18949       73.95480       27.30593
O         37.32033       74.02533       26.44710
C         38.34023       72.25739       29.21836
C         39.81488       72.23241       29.55457
O         40.30294       72.93752       30.59130
O         40.57038       71.50365       28.94084
H         38.65576       74.54134       30.44549
H         36.65034       73.43827       28.70670
H         38.11744       71.49324       28.44027
H         37.80174       71.94840       30.13918
N         39.49895       74.13864       26.95905
C         39.90417       74.43614       25.58366
C         40.41157       73.20286       24.85050
O         40.54925       73.27093       23.63664
C         40.95304       75.55142       25.57085
H         40.23093       74.01658       27.67227
H         39.02164       74.78744       25.00540
H         40.55317       76.46040       26.06728
H         41.86601       75.22162       26.11425
H         41.23723       75.81178       24.52881
N         40.71733       72.04942       25.51047
C         41.16115       70.82398       24.84898
C         40.35128       69.58795       25.26403
O         40.31454       68.64104       24.49157
C         42.67168       70.62536       25.08026
C         43.06241       70.68058       26.53338
O         43.83118       71.54292       26.92751
O         42.56201       69.79767       27.40999
H         40.69784       72.06415       26.53327
H         41.03030       70.92008       23.74754
H         43.20703       71.44587       24.55263
H         43.00200       69.66344       24.63233
N         39.70066       69.50529       26.46276
C         38.90871       68.36828       26.91091
C         39.67152       67.07636       27.16371
O         39.02207       66.12242       27.56775
H         39.72069       70.29998       27.10066
H         38.10026       68.17784       26.17314
H         38.42648       68.64265       27.87523
N         41.00944       66.93518       26.93146
C         41.71313       65.66150       27.05633
C         42.94707       65.73449       27.95010
O         43.63654       64.72650       28.03891
C         42.06306       65.18032       25.63294
C         40.79220       64.81298       24.89762
N         40.39421       65.48566       23.79453
O         40.10487       63.89379       25.31951
H         41.54981       67.72411       26.56041
H         41.07041       64.87907       27.51657
H         42.69810       64.26900       25.66401
H         42.62937       65.97632       25.09978
H         40.94647       66.26999       23.42237
H         39.51603       65.22645       23.31947
N         43.27947       66.83650       28.68539
C         44.44395       66.82227       29.55921
C         44.60882       68.13864       30.33571
O         43.54246       68.39661       31.19219
H         42.68946       67.67670       28.65094
H         45.35360       66.66084       28.94000
H         44.33119       65.98540       30.27975
N         45.90294       68.31189       31.01533
C         46.45858       67.21891       31.84292
C         46.01727       67.23124       33.31782
O         46.25131       66.22832       33.97799
C         48.00330       67.28957       31.67741
C         48.78692       66.23236       32.45724
O         48.32529       67.13591       30.31603
H         46.06446       69.27811       31.37794
H         46.14534       66.24197       31.42903
H         48.36874       68.28016       32.04001
H         48.22707       68.02371       29.88250
H         49.87026       66.34171       32.23289
H         48.66739       66.37055       33.55056
H         48.46405       65.21135       32.16507
N         45.43429       68.30948       33.92624
C         45.11055       68.35488       35.36105
C         43.65116       68.77830       35.52408
O         43.27792       69.74733       34.88010
C         46.07664       69.34482       36.07885
C         47.54893       68.91176       35.81916
C         45.77291       69.38749       37.59164
C         48.60221       69.80402       36.47416
H         45.28093       69.17094       33.38588
H         45.28150       67.36408       35.82336
H         45.92770       70.36635       35.66299
H         47.74669       68.94102       34.72625
H         47.70589       67.86794       36.17014
H         46.40767       70.13570       38.10624
H         44.72219       69.69026       37.77915
H         45.94724       68.39220       38.05384
H         48.47896       70.85635       36.14419
H         48.54619       69.74604       37.57983
H         49.61257       69.45128       36.17560
N         42.72882       68.14803       36.31594
C         42.97385       67.08942       37.29416
C         42.28322       67.42383       38.61779
O         41.10805       67.75843       38.60967
C         42.53584       65.70921       36.75841
C         41.08973       65.52630       36.36993
O         40.19458       66.52816       36.44243
O         40.72306       64.43434       35.96721
H         41.75883       68.49279       36.24624
H         44.05409       66.97311       37.49882
H         42.77781       64.95474       37.54051
H         43.15611       65.47887       35.86487
N         42.94435       67.29322       39.80582
C         42.30806       67.52404       41.10510
C         43.13359       68.48219       41.94655
O         44.35001       68.38107       41.89796
C         42.18962       66.19908       41.88345
C         41.36612       65.16568       41.15411
C         41.94086       63.93297       40.80356
C         40.01863       65.41134       40.82988
C         41.18517       62.96561       40.13668
C         39.26759       64.44146       40.15849
C         39.85051       63.21977       39.81237
H         43.91723       66.95337       39.79549
H         41.28372       67.90893       40.97845
H         41.70521       66.38957       42.86666
H         43.21006       65.80520       42.08559
H         42.97321       63.71806       41.04927
H         39.54714       66.34924       41.09522
H         41.63566       62.01781       39.87313
H         38.23239       64.63553       39.90876
H         39.26779       62.46852       39.29567
N         42.56927       69.34461       42.85433
C         41.14852       69.50598       43.13818
C         40.35156       70.04007       41.96646
O         39.29434       69.50030       41.67996
C         41.11951       70.48561       44.31903
C         42.41797       70.14440       45.02323
C         43.36367       70.06191       43.83282
H         40.73843       68.53111       43.48737
H         41.22082       71.53394       43.95630
H         40.20416       70.41393       44.94560
H         42.72934       70.85901       45.81346
H         42.32203       69.12783       45.47381
H         43.57947       71.08192       43.44349
H         44.30651       69.54716       44.11749
N         40.83349       71.06568       41.20644
C         40.11846       71.57866       40.04286
C         38.91333       72.38696       40.50276
O         39.11192       73.36552       41.20902
C         41.03328       72.47203       39.17505
C         42.20209       71.67960       38.56317
C         43.05025       72.56535       37.69641
O         43.17895       72.32204       36.50723
O         43.68084       73.62938       38.22936
H         41.76041       71.45340       41.43674
H         39.82260       70.72463       39.39873
H         41.42207       73.32064       39.78084
H         40.42901       72.88727       38.33700
H         41.79609       70.84327       37.95111
H         42.84453       71.24821       39.35894
N         37.62999       72.08115       40.15755
C         37.25943       70.95408       39.33053
H         36.15726       70.93539       39.19416
H         37.73526       71.03732       38.33093
H         37.56187       70.00501       39.81805
H         36.87053       72.68958       40.50156
Ca        42.79411       70.35879       30.31671
O         42.84424       71.68267       32.84738
H         43.03721       72.62177       33.08984
H         43.73587       71.27621       32.70123
O         42.77526       73.76059       29.09558
H         42.21722       74.57734       29.14083
H         43.69314       74.09528       28.93824
O         45.40722       72.06220       30.22088
H         46.12728       72.40777       29.63590
H         45.87594       71.75190       31.03579
O         40.33185       68.70902       29.99412
H         40.78791       67.87114       30.25781
H         39.91062       69.03709       30.82767

Ca 1.0



