%chk=apoCaM-CA-Ng.loop3.water5.frame478.chk
%nprocshared=20
%mem=10GB
%nosave
#b3lyp/svp scf=(tight,noincore,xqc) Test 
#IOP(5/87=12) Density=Current Pop=(MK,readradii) iop(6/33=2) iop(6/42=6)

apoCaM-CA-Ng.loop3.water5.frame478 

   0  1 
C         45.44636       51.07726      113.00050
C         45.06872       49.93239      113.89421
O         44.03971       50.01664      114.54659
H         46.40373       50.88222      112.47278
H         44.65017       51.24008      112.24483
H         45.56333       51.99819      113.61032
N         45.86590       48.82481      113.97805
C         45.61012       47.65895      114.82754
C         45.76548       47.94992      116.32255
O         45.62690       47.02041      117.10562
C         44.23902       47.00947      114.51942
C         44.09138       46.64051      113.06692
O         43.92494       45.35225      112.71321
O         44.09663       47.50361      112.20333
H         46.71117       48.78822      113.38787
H         46.39116       46.90047      114.59313
H         43.40322       47.67944      114.80690
H         44.14167       46.08381      115.12767
N         46.08454       49.19180      116.79153
C         46.28654       49.51628      118.20245
C         45.25575       50.51609      118.71220
O         45.28405       50.82611      119.89591
C         47.72199       50.07493      118.40284
C         47.99068       51.37932      117.61286
C         49.42789       51.88334      117.79189
C         49.74457       53.09582      116.89222
N         48.94888       54.27808      117.22922
H         46.20291       49.95395      116.12021
H         46.17965       48.60098      118.82463
H         48.44777       49.29819      118.07734
H         47.89266       50.26750      119.48512
H         47.27451       52.15962      117.94449
H         47.85438       51.20210      116.52886
H         50.12232       51.06652      117.49674
H         49.61772       52.13680      118.85701
H         49.57665       52.82602      115.82499
H         50.82186       53.34518      117.01072
H         49.25147       55.07251      116.61998
H         47.93321       54.10907      117.05435
H         49.10352       54.54267      118.22877
N         44.34924       51.10222      117.87828
C         43.44189       52.15481      118.31212
C         42.36749       51.60148      119.23989
O         42.08168       50.41232      119.19212
C         42.87098       52.85322      117.05867
C         42.14192       54.13338      117.34083
O         42.59393       55.19196      116.93546
O         40.97474       54.12743      118.00009
H         44.35587       50.86340      116.88044
H         44.05454       52.91008      118.85411
H         42.22517       52.15692      116.48379
H         43.73916       53.11231      116.41052
N         41.75969       52.41562      120.14768
C         40.75652       51.96198      121.09808
C         39.51418       51.45095      120.41223
O         39.14868       50.30428      120.63004
H         42.04759       53.40351      120.19526
H         40.46383       52.81319      121.74959
H         41.19184       51.16946      121.74611
N         38.81795       52.25086      119.55625
C         37.62758       51.80277      118.84081
C         37.96687       51.22306      117.47368
O         37.06540       50.70108      116.83282
C         36.54785       52.91361      118.81657
C         36.91386       54.17754      118.07149
N         36.05971       55.22817      118.06975
O         37.97213       54.26401      117.47068
H         39.18503       53.19128      119.36737
H         37.17520       50.95495      119.40073
H         36.32801       53.19084      119.87041
H         35.61493       52.51064      118.36656
H         35.16106       55.17733      118.57157
H         36.29802       56.09885      117.57151
N         39.24398       51.22076      116.98562
C         39.63895       50.52002      115.77352
C         40.11358       51.43736      114.67319
O         40.53288       50.91973      113.64779
H         39.99518       51.69098      117.50756
H         38.80498       49.91484      115.35986
H         40.45984       49.81939      116.04098
N         40.03348       52.79541      114.77265
C         40.41055       53.68692      113.68439
C         39.89874       55.11096      114.01040
O         40.76968       55.78989      114.86644
C         41.94217       53.63572      113.44318
C         42.44983       54.64673      112.44299
C         42.04620       54.61160      111.09835
C         43.35281       55.64005      112.86206
C         42.53955       55.55731      110.19091
C         43.84167       56.58200      111.95640
C         43.43754       56.54381      110.61587
O         43.90646       57.44646      109.73095
H         39.62541       53.21166      115.62175
H         39.86732       53.34117      112.77739
H         42.25163       52.62394      113.11023
H         42.43730       53.81862      114.41781
H         41.35369       53.85456      110.75318
H         43.68043       55.68822      113.89340
H         42.22456       55.52381      109.15575
H         44.53586       57.33907      112.29926
H         44.53255       58.13911      109.98755
N         39.63472       55.90344      112.80492
C         38.74664       57.05148      113.07669
C         37.52559       56.63104      113.89756
O         37.32150       57.19247      114.96467
C         38.35639       57.73522      111.73255
C         39.60017       58.06726      110.85875
C         37.49863       58.99264      111.95930
C         40.63798       58.98204      111.51941
H         39.15816       55.29562      112.09933
H         39.31134       57.79726      113.67883
H         37.73860       57.02308      111.14059
H         39.26037       58.53956      109.91153
H         40.11364       57.12287      110.58001
H         38.04017       59.75203      112.55875
H         37.21433       59.43810      110.98166
H         36.56170       58.73876      112.49247
H         40.19832       59.96367      111.78665
H         41.06815       58.50830      112.42602
H         41.47336       59.15892      110.80973
N         36.71713       55.60375      113.50409
C         35.62075       55.11942      114.34084
C         34.49168       56.12606      114.45483
O         33.76174       56.07940      115.43446
C         35.06121       53.79044      113.81565
O         36.07345       52.82221      113.74162
H         36.93288       55.10924      112.62589
H         36.03071       54.92056      115.35438
H         34.63525       53.93770      112.80013
H         34.23763       53.42299      114.47029
H         36.29081       52.56498      114.67590
N         34.28440       57.05757      113.48022
C         33.23872       58.07244      113.51035
C         33.35605       58.95283      114.74530
O         32.33773       59.31574      115.32281
C         31.84771       57.42964      113.37235
H         34.90812       57.06646      112.66104
H         33.38969       58.72468      112.62162
H         31.06270       58.21311      113.30716
H         31.80199       56.81596      112.44794
H         31.61882       56.77648      114.24071
N         34.58078       59.29103      115.24132
C         34.76075       60.10085      116.43975
C         35.77792       61.19675      116.20818
O         36.56633       61.09747      115.27526
C         35.22707       59.20708      117.58672
H         35.42180       58.90959      114.78312
H         33.79547       60.56707      116.73674
H         35.35612       59.79925      118.51718
H         34.47060       58.41491      117.77421
H         36.19018       58.72019      117.32517
N         35.79852       62.30136      117.01300
C         36.76513       63.39024      116.87716
C         36.74785       64.03827      115.49069
O         37.62876       64.84351      115.22172
C         38.18313       62.90461      117.26936
C         38.23703       62.47497      118.75021
C         39.61521       62.08147      119.21415
O         40.57112       62.09529      118.45413
O         39.79849       61.72127      120.49881
H         35.09248       62.38045      117.76149
H         36.51324       64.19791      117.59977
H         38.89739       63.74820      117.14441
H         38.51317       62.07471      116.61216
H         37.55120       61.61840      118.92159
H         37.90418       63.32764      119.38221
N         35.76814       63.77488      114.57402
C         35.74782       64.33906      113.24016
H         36.63522       64.97160      113.03075
H         35.72999       63.51195      112.49904
H         34.83278       64.95367      113.11371
H         34.97972       63.15955      114.81299
Ca        39.56616       56.44518      116.68405
O         39.04910       59.32630      116.48226
H         39.77385       59.98887      116.60166
H         38.66521       59.53217      115.59419
O         41.40526       58.17495      119.04817
H         41.94688       58.92251      118.69053
H         41.14229       58.47215      119.95528
O         39.89309       55.69174      120.27061
H         39.26548       55.21108      120.86638
H         40.79195       55.42495      120.58677
O         42.04612       58.17135      115.92374
H         42.09716       59.15577      116.01064
H         42.86490       57.92035      115.42738
O         38.00364       57.69047      119.23150
H         38.13808       58.59582      118.85615
H         37.90487       57.84061      120.20476

Ca 1.0



