%chk=apoCaM-CA-Ng.loop1.water3.frame80.chk
%nprocshared=20
%mem=10GB
%nosave
#b3lyp/svp scf=(tight,noincore,xqc) Test 
#IOP(5/87=12) Density=Current Pop=(MK,readradii) iop(6/33=2) iop(6/42=6)

apoCaM-CA-Ng.loop1.water3.frame80 

   0  1 
C         49.12198       41.48969       57.91385
C         48.51612       42.15148       59.11558
O         49.16876       42.24078       60.14566
H         50.15489       41.14385       58.13102
H         48.50473       40.61497       57.61991
H         49.15665       42.21053       57.06979
N         47.25239       42.65393       59.04595
C         46.60807       43.34572       60.16079
C         46.36927       42.46171       61.38710
O         45.96971       42.99993       62.40791
C         45.27575       43.99185       59.70762
C         44.20187       43.00341       59.32478
O         43.03971       42.98385       60.00507
O         44.35828       42.23847       58.38715
H         46.76404       42.58436       58.14094
H         47.28732       44.17431       60.46308
H         45.46998       44.67045       58.84826
H         44.88221       44.60764       60.53908
N         46.54261       41.10910       61.35634
C         46.25078       40.22678       62.48730
C         47.45393       40.14679       63.42988
O         48.53924       39.92676       62.90925
C         45.96077       38.79292       61.96883
C         44.84429       38.68617       60.90734
C         43.47241       39.19725       61.36947
C         42.42942       38.99008       60.25907
N         41.11531       39.48657       60.66387
H         46.81080       40.67110       60.46486
H         45.33008       40.56168       62.99185
H         45.69344       38.14486       62.83081
H         46.88289       38.37458       61.50795
H         44.75018       37.61215       60.63415
H         45.14025       39.23672       59.98967
H         43.53258       40.28175       61.60178
H         43.15647       38.64666       62.28201
H         42.35254       37.90567       60.01976
H         42.75270       39.52813       59.33954
H         41.16351       40.51310       60.85805
H         40.43531       39.32217       59.88628
H         40.78449       38.97831       61.51573
N         47.40866       40.21147       64.80303
C         46.24267       40.38946       65.66961
C         45.17229       39.34546       65.38339
O         44.09536       39.70553       64.92811
C         45.72408       41.84155       65.62958
C         46.72873       42.83998       66.14861
O         46.40054       44.00756       66.26639
O         47.96674       42.46441       66.52882
H         48.30474       40.06865       65.29622
H         46.55084       40.23782       66.72940
H         44.84303       41.90968       66.29541
H         45.39989       42.12990       64.61630
N         45.36830       38.01541       65.61269
C         46.53870       37.47269       66.29486
C         46.58249       35.95252       66.26145
O         45.77667       35.34513       65.57030
H         44.60877       37.37814       65.32880
H         46.51987       37.83683       67.34137
H         47.46914       37.81985       65.80216
N         47.53648       35.23368       66.92118
C         48.50770       35.79539       67.85577
C         47.82272       36.18267       69.15711
O         47.23029       35.30906       69.77731
C         49.65043       34.78471       68.16202
C         49.23562       33.52002       68.88290
O         48.46672       32.72453       68.36825
O         49.73351       33.25525       70.10627
H         47.55918       34.22113       66.73481
H         49.00257       36.67148       67.38209
H         50.39863       35.30633       68.79910
H         50.15647       34.50355       67.21391
N         47.87614       37.45430       69.65308
C         47.31722       37.79251       70.95525
C         46.16881       38.75564       70.84912
O         45.22486       38.46991       70.12441
H         48.35441       38.19314       69.11574
H         48.12078       38.18966       71.61156
H         46.91118       36.89293       71.46363
N         46.12708       39.86955       71.63602
C         44.94161       40.72084       71.70283
C         44.69778       41.46349       70.40073
O         45.53107       41.43100       69.50677
C         44.99259       41.68483       72.91821
C         46.09553       42.74580       72.81955
O         45.16898       40.92796       74.08955
H         46.91144       40.04227       72.28224
H         44.07061       40.04913       71.87884
H         44.01255       42.21460       72.97053
H         44.77997       41.45021       74.83914
H         47.10131       42.28166       72.77489
H         45.94602       43.38044       71.92112
H         46.05380       43.40308       73.71437
N         43.52454       42.13425       70.23289
C         43.15353       42.83926       69.01583
C         42.88246       44.29047       69.36736
O         42.04762       44.55052       70.22171
C         41.92011       42.13466       68.37207
C         42.31087       40.68083       67.98134
C         41.41523       42.92160       67.14704
C         41.17523       39.84985       67.38569
H         42.83064       42.11138       70.99518
H         43.97455       42.80848       68.26941
H         41.09375       42.09859       69.11689
H         42.66261       40.13922       68.88479
H         43.14494       40.70096       67.25218
H         41.10628       43.94206       67.44709
H         42.20484       42.99326       66.36912
H         40.51196       42.45205       66.71007
H         40.33041       39.78203       68.10196
H         40.82112       40.27285       66.42445
H         41.54947       38.82498       67.17566
N         43.53650       45.28987       68.70453
C         43.29940       46.70979       68.95827
C         42.50341       47.35088       67.83087
O         42.15863       48.51831       67.96100
C         44.63567       47.46224       69.19683
C         45.54238       47.53114       67.95275
O         45.32925       46.90972       70.28774
H         44.18687       45.03126       67.94910
H         42.67734       46.82692       69.87246
H         44.38993       48.51410       69.46186
H         45.67658       46.02194       70.00991
H         45.01799       48.03199       67.11293
H         46.45231       48.12313       68.18391
H         45.85802       46.52288       67.61807
N         42.15768       46.65277       66.70832
C         41.34560       47.16853       65.61273
C         42.04697       48.30862       64.87938
O         43.06810       48.80665       65.33154
C         39.90944       47.52949       66.10665
C         39.24172       46.35437       66.84055
O         39.08301       47.94447       65.04880
H         42.46248       45.67609       66.60359
H         41.24975       46.34187       64.87215
H         39.96808       48.37339       66.82404
H         38.94977       47.16589       64.44607
H         39.15415       45.47378       66.16821
H         39.82607       46.06304       67.73786
H         38.22470       46.64911       67.17525
N         41.56120       48.72249       63.67680
C         42.15484       49.77940       62.85839
C         43.57032       49.47668       62.36606
O         44.14942       50.35083       61.73462
C         41.23592       50.06492       61.64360
C         41.13911       48.86936       60.67056
C         40.09032       49.11795       59.58195
C         39.97094       47.94736       58.58829
N         39.54863       46.69886       59.23108
H         40.70643       48.26733       63.33772
H         42.19250       50.70171       63.47965
H         41.60289       50.95565       61.08759
H         40.22360       50.30782       62.03630
H         40.84552       47.96167       61.22646
H         42.12997       48.68448       60.20210
H         40.36866       50.03235       59.01464
H         39.09937       49.29035       60.05721
H         40.94202       47.78983       58.06947
H         39.21377       48.22807       57.82350
H         38.66246       46.84554       59.76699
H         39.38033       45.97768       58.49337
H         40.29433       46.33284       59.86444
N         44.19586       48.28370       62.59260
C         45.53580       48.00070       62.09317
C         45.51503       47.91985       60.58021
O         44.75555       47.12840       60.03953
C         46.09005       46.67797       62.66892
C         46.20683       46.62170       64.20518
C         47.07146       47.70249       64.80329
O         48.22298       47.40069       65.43698
O         46.71218       48.86774       64.75956
H         43.71570       47.54753       63.12474
H         46.22764       48.80828       62.40623
H         47.10303       46.50641       62.24101
H         45.43924       45.83584       62.35651
H         46.64762       45.63639       64.44483
H         45.20365       46.66492       64.67986
N         46.33927       48.70649       59.83394
C         46.38751       48.66182       58.38607
H         46.15409       49.66713       57.97905
H         47.40875       48.36968       58.06272
H         45.66659       47.93354       57.95788
H         46.98023       49.35973       60.30842
Ca        49.07201       45.31322       65.61778
O         49.12579       43.80303       62.93438
H         49.09844       42.81376       62.94892
H         48.23924       44.07837       63.27703
O         50.91415       43.51537       67.73606
H         51.53118       42.76431       67.54740
H         50.94851       43.62337       68.71973
O         48.25865       45.67370       68.59185
H         48.49610       46.63431       68.62777
H         48.88810       45.23879       69.21938

Ca 1.0



