%chk=apoCaM-CA-Ng.loop3.water7.frame1168.chk
%nprocshared=20
%mem=10GB
%nosave
#b3lyp/svp scf=(tight,noincore,xqc) Test 
#IOP(5/87=12) Density=Current Pop=(MK,readradii) iop(6/33=2) iop(6/42=6)

apoCaM-CA-Ng.loop3.water7.frame1168 

   0  1 
C         78.58165       53.04023      -15.71076
C         79.16228       53.50414      -17.01180
O         79.36551       54.69873      -17.17865
H         77.61683       52.52437      -15.89221
H         79.28928       52.33611      -15.22345
H         78.41203       53.89981      -15.02660
N         79.48917       52.59470      -17.97393
C         80.12707       52.96379      -19.23191
C         79.36035       52.48991      -20.46461
O         79.85123       52.74028      -21.55633
C         81.60113       52.51212      -19.22882
C         81.81682       51.02728      -19.22215
O         82.48000       50.51569      -20.10685
O         81.34902       50.26195      -18.21871
H         79.32429       51.59655      -17.77751
H         80.18444       54.06436      -19.30945
H         82.09710       52.94229      -18.33206
H         82.10522       52.94448      -20.12277
N         78.13156       51.88109      -20.38912
C         77.32303       51.50339      -21.55412
C         77.16522       52.67922      -22.50875
O         77.52767       52.56855      -23.67245
C         77.79917       50.17472      -22.21599
C         79.28804       50.05619      -22.58860
C         79.56002       48.72194      -23.31342
C         81.05429       48.44845      -23.56777
N         81.76531       48.10272      -22.33525
H         77.69257       51.75201      -19.46692
H         76.29567       51.27217      -21.19994
H         77.16867       49.99274      -23.11493
H         77.59227       49.35058      -21.49787
H         79.87104       50.10335      -21.64824
H         79.59890       50.88445      -23.25990
H         79.03937       48.76662      -24.29480
H         79.14261       47.86512      -22.74103
H         81.52999       49.32580      -24.05946
H         81.13845       47.58177      -24.25971
H         81.35286       47.23921      -21.91234
H         82.77187       47.92169      -22.55230
H         81.71008       48.87828      -21.64778
N         76.66275       53.86582      -22.04799
C         76.65499       55.08480      -22.85390
C         77.85485       55.95284      -22.50350
O         78.11918       56.90123      -23.23044
C         75.38373       55.92716      -22.62326
C         74.07581       55.25182      -22.90872
O         74.00072       53.97656      -23.32750
O         73.04456       55.88073      -22.73839
H         76.40643       53.93469      -21.05090
H         76.74088       54.82055      -23.93189
H         75.43748       56.83507      -23.26427
H         75.36450       56.25395      -21.55993
N         78.62003       55.70686      -21.39842
C         79.79907       56.47504      -21.04891
C         80.90961       56.28581      -22.05756
O         80.70563       55.61586      -23.06085
H         78.36050       54.95793      -20.74670
H         80.16225       56.13119      -20.06446
H         79.53402       57.55019      -20.96057
N         82.13272       56.85806      -21.89563
C         82.55770       57.59362      -20.70843
C         82.81525       56.60802      -19.57128
O         83.55925       55.66366      -19.79769
C         83.87001       58.34318      -21.03325
C         84.36384       59.18927      -19.88595
N         83.62814       60.22591      -19.42067
O         85.44922       58.94409      -19.38160
H         82.81003       56.74181      -22.66693
H         81.79905       58.36255      -20.45573
H         83.70282       59.01214      -21.90523
H         84.65359       57.60483      -21.31627
H         82.71535       60.45746      -19.83892
H         83.97173       60.80094      -18.63742
N         82.31094       56.74289      -18.31178
C         81.47528       57.84421      -17.86299
C         81.31163       57.77735      -16.36620
O         82.32535       57.81117      -15.67727
H         82.59052       56.02811      -17.61868
H         80.49618       57.81585      -18.38501
H         81.97099       58.80765      -18.08304
N         80.08707       57.64470      -15.78219
C         79.94220       57.48498      -14.33453
C         78.52320       57.08386      -13.94453
O         77.61468       57.17474      -14.76432
C         80.34004       58.80148      -13.60300
C         80.66532       58.61594      -12.14055
C         79.89097       59.21820      -11.13457
C         81.79236       57.85892      -11.77631
C         80.23945       59.05923       -9.78723
C         82.14212       57.70803      -10.43281
C         81.36630       58.30827       -9.43222
O         81.69763       58.17569       -8.13174
H         79.26440       57.58345      -16.40204
H         80.61550       56.64499      -14.05168
H         79.52795       59.54744      -13.75418
H         81.25314       59.24822      -14.04483
H         79.02131       59.81010      -11.38945
H         82.41175       57.39914      -12.53646
H         79.63718       59.52527       -9.01755
H         83.02042       57.13036      -10.17250
H         82.47735       57.67645       -7.84809
N         78.25962       56.60716      -12.69673
C         76.91114       56.23789      -12.25337
C         76.00826       57.47560      -12.24373
O         76.50682       58.57340      -12.44667
C         76.98938       55.44321      -10.90447
C         77.53152       56.29776       -9.72830
C         75.66026       54.75888      -10.52718
C         77.82746       55.46909       -8.47616
H         79.06101       56.46460      -12.06564
H         76.50845       55.53216      -13.01447
H         77.70840       54.61657      -11.10400
H         76.81097       57.10637       -9.47927
H         78.48765       56.77571      -10.01183
H         75.81602       54.01143       -9.72449
H         74.91980       55.48681      -10.14100
H         75.24416       54.20696      -11.39737
H         78.26690       56.12256       -7.69447
H         76.90603       55.01684       -8.05803
H         78.55650       54.66500       -8.71584
N         74.65933       57.36722      -12.06646
C         73.74844       58.49978      -12.19058
C         72.66228       58.18001      -13.20425
O         72.50099       57.02913      -13.57936
C         73.14227       58.84660      -10.82361
O         72.44816       57.74351      -10.30421
H         74.24146       56.44716      -11.89514
H         74.29686       59.39664      -12.55112
H         72.46702       59.72761      -10.93716
H         73.95584       59.12618      -10.11865
H         71.66500       58.09820       -9.80879
N         71.87633       59.17986      -13.69286
C         70.77454       58.98798      -14.62992
C         69.66553       58.17772      -13.98747
O         69.16732       57.23618      -14.59144
C         71.26001       58.38567      -15.96379
H         72.06107       60.14394      -13.37794
H         70.34870       59.99208      -14.84693
H         70.41939       58.31774      -16.68618
H         72.05601       59.02012      -16.40510
H         71.66454       57.36053      -15.82865
N         69.24787       58.48933      -12.72502
C         68.19324       57.78330      -12.01022
C         68.43592       56.28486      -12.03751
O         67.58774       55.53779      -12.50741
C         66.82170       58.17290      -12.57399
H         69.73199       59.24702      -12.21869
H         68.20420       58.12059      -10.94928
H         66.01765       57.68587      -11.98108
H         66.68774       59.27330      -12.49753
H         66.72286       57.87239      -13.63739
N         69.60650       55.78443      -11.55830
C         69.94550       54.36881      -11.58569
C         70.03189       53.86804      -10.16016
O         69.32157       52.93286       -9.81694
C         71.26471       54.17039      -12.36647
C         71.65546       52.70139      -12.62449
C         70.75767       52.01074      -13.62411
O         71.21972       51.61922      -14.68462
O         69.45631       51.79345      -13.35753
H         70.29108       56.44431      -11.16164
H         69.14993       53.80228      -12.10596
H         72.08581       54.66214      -11.80035
H         71.19242       54.67510      -13.35508
H         71.68368       52.12701      -11.67486
H         72.68477       52.70600      -13.04698
N         70.84264       54.48186       -9.25359
C         70.88424       54.08272       -7.86491
H         71.56629       54.75344       -7.30003
H         69.86861       54.16302       -7.41974
H         71.24822       53.03836       -7.77893
H         71.42368       55.28216       -9.54230
Ca        71.91593       53.13252      -23.55561
O         70.00063       55.66374      -22.54913
H         69.27918       56.29364      -22.29961
H         70.59820       55.65197      -21.76017
O         68.86732       52.57855      -23.84552
H         68.36487       53.43160      -23.83754
H         68.44652       52.03525      -23.13275
O         70.80913       50.54265      -22.23370
H         70.93849       50.05058      -21.38447
H         70.35841       49.89566      -22.83217
O         73.41666       51.86049      -21.26396
H         73.91531       51.08646      -21.62739
H         73.98908       52.21490      -20.53840
O         70.75392       54.13902      -26.15914
H         71.69374       54.42938      -26.27395
H         70.29207       54.93335      -25.79007
O         70.79503       53.26867      -20.43095
H         70.82922       52.43211      -19.90288
H         69.95566       53.70898      -20.14495
O         72.90169       50.90413      -25.16347
H         73.82812       50.98742      -24.82381
H         72.51771       50.14577      -24.65585

Ca 1.0



