%chk=apoCaM-CA-Ng.loop2.water4.frame794.chk
%nprocshared=20
%mem=10GB
%nosave
#b3lyp/svp scf=(tight,noincore,xqc) Test 
#IOP(5/87=12) Density=Current Pop=(MK,readradii) iop(6/33=2) iop(6/42=6)

apoCaM-CA-Ng.loop2.water4.frame794 

   -2  1 
C         13.84199      -14.93138       83.51906
C         13.92999      -16.24188       84.24535
O         14.43903      -17.19587       83.67484
H         13.35026      -14.15369       84.14069
H         14.86505      -14.58039       83.26523
H         13.25916      -15.06162       82.58425
N         13.48822      -16.35073       85.52981
C         13.60421      -17.56987       86.31738
C         14.68127      -17.33469       87.34643
O         14.55893      -16.41262       88.14323
C         12.24322      -17.92562       86.94555
C         12.29759      -19.19640       87.75341
O         13.07905      -19.27704       88.84797
O         11.61497      -20.15592       87.43235
H         13.11231      -15.51029       85.99686
H         13.90938      -18.42311       85.67223
H         11.50379      -18.05014       86.12365
H         11.89250      -17.09905       87.60099
N         15.80401      -18.10979       87.35009
C         16.93428      -17.82932       88.22577
C         17.53961      -16.46836       87.86168
O         17.22862      -15.96563       86.79047
C         17.97363      -18.95594       88.09861
H         15.86341      -18.90265       86.69223
H         16.54305      -17.80598       89.26696
H         17.50301      -19.92176       88.38521
H         18.33051      -19.03493       87.05014
H         18.85610      -18.80640       88.74902
N         18.33577      -15.74267       88.70199
C         18.73415      -16.16743       90.03649
C         17.94374      -15.44372       91.10045
O         17.26424      -14.46611       90.81934
C         20.25555      -15.99538       90.26368
C         20.71241      -14.55408       90.25971
O         21.23138      -14.01307       91.37893
O         20.63771      -13.87488       89.24860
H         18.60015      -14.79711       88.39104
H         18.49380      -17.23309       90.17739
H         20.82436      -16.56231       89.49660
H         20.50944      -16.42732       91.25581
N         17.96652      -15.93203       92.36802
C         17.27212      -15.33012       93.48358
C         15.76940      -15.26352       93.26171
O         15.19616      -16.30775       92.98559
H         18.50818      -16.78929       92.55859
H         17.75261      -14.36905       93.71099
H         17.44233      -15.97314       94.37363
N         15.01485      -14.13289       93.43875
C         15.51393      -12.81497       93.82131
C         14.81281      -11.73311       93.01577
O         13.59243      -11.64708       93.05424
C         15.31636      -12.54784       95.32849
C         16.12669      -13.48012       96.20295
N         15.80430      -14.78882       96.32737
O         17.08106      -13.03712       96.82502
H         13.98957      -14.24030       93.37310
H         16.59370      -12.71321       93.63267
H         14.24639      -12.59185       95.62228
H         15.68036      -11.51210       95.51726
H         14.98442      -15.18282       95.84624
H         16.36868      -15.41104       96.92514
N         15.54372      -10.83130       92.30399
C         14.92804       -9.74799       91.54739
C         15.89605       -8.70292       90.99418
O         15.44801       -7.89802       90.18960
H         16.55962      -10.94495       92.32180
H         14.20824       -9.19587       92.19195
H         14.35775      -10.20354       90.70924
N         17.19264       -8.58133       91.41637
C         18.09590       -7.53907       90.93579
C         18.40184       -7.71351       89.45610
O         18.92055       -8.74562       89.05448
C         19.41487       -7.50944       91.74805
C         19.16625       -7.11909       93.21283
O         20.05262       -8.75914       91.68355
H         17.55076       -9.19665       92.15176
H         17.60889       -6.55070       91.09624
H         20.06880       -6.72692       91.29541
H         20.99511       -8.61581       91.95899
H         18.51750       -7.85552       93.73006
H         20.13254       -7.06356       93.75643
H         18.68244       -6.12000       93.26424
N         18.10544       -6.70604       88.59130
C         18.37307       -6.74530       87.15560
C         19.87700       -6.77566       86.90752
O         20.55076       -5.83698       87.31097
C         17.73131       -5.48719       86.47305
C         18.10339       -5.38142       84.96929
C         16.19534       -5.51372       86.65087
C         17.59444       -4.09749       84.30458
H         17.66739       -5.86037       88.98555
H         17.89731       -7.64841       86.71462
H         18.13224       -4.58052       86.98119
H         17.72196       -6.26451       84.41383
H         19.20846       -5.35809       84.87012
H         15.76004       -6.38754       86.12103
H         15.89866       -5.57351       87.71642
H         15.72798       -4.58662       86.26568
H         17.97933       -3.20632       84.84548
H         17.95235       -4.05060       83.25647
H         16.48795       -4.06071       84.27262
N         20.45697       -7.79081       86.19312
C         21.86127       -7.77856       85.78224
C         22.00341       -7.66145       84.26316
O         23.12730       -7.57022       83.78980
C         22.62442       -8.97550       86.38315
C         22.42763      -10.29861       85.69301
O         22.90815      -10.47636       84.58534
O         21.82850      -11.33055       86.31300
H         19.87134       -8.57502       85.88148
H         22.35117       -6.87469       86.20543
H         22.35360       -9.04388       87.45571
H         23.71674       -8.76888       86.33739
N         20.90621       -7.56872       83.44919
C         20.97045       -7.20729       82.04101
C         20.00129       -8.07464       81.23504
O         19.04343       -7.53782       80.69545
C         20.64274       -5.69570       81.99627
C         20.66556       -5.03580       80.64104
C         21.80976       -5.08255       79.82669
C         19.54075       -4.31334       80.20368
C         21.82288       -4.41941       78.59470
C         19.56222       -3.64519       78.97795
C         20.70198       -3.69823       78.17311
H         19.96347       -7.58263       83.86111
H         21.99578       -7.32574       81.63269
H         21.39952       -5.17278       82.62185
H         19.65367       -5.53542       82.47294
H         22.69188       -5.62319       80.14396
H         18.65197       -4.24923       80.81908
H         22.70570       -4.45629       77.97010
H         18.69666       -3.07982       78.65729
H         20.71738       -3.17593       77.22555
N         20.17108       -9.43023       81.09360
C         19.30034      -10.27710       80.28270
C         17.84749      -10.36558       80.72950
O         17.07510      -10.99974       80.02248
C         19.95351      -11.66141       80.36085
C         21.41600      -11.30124       80.51037
C         21.34011      -10.16400       81.52803
H         19.34795       -9.88266       79.24196
H         19.65350      -12.15971       81.31210
H         19.70504      -12.33696       79.51346
H         22.07939      -12.14244       80.80227
H         21.76657      -10.88766       79.53589
H         21.14840      -10.56244       82.54770
H         22.28371       -9.58160       81.49568
N         17.39038       -9.77107       81.87319
C         15.97682       -9.76062       82.23367
C         15.25312       -8.96364       81.16554
O         14.36331       -9.49404       80.51524
C         15.68521       -9.09201       83.60915
C         15.92965       -9.89480       84.91141
C         17.34299      -10.16317       85.34083
O         17.57971      -10.60487       86.59198
O         18.28852       -9.94384       84.60995
H         18.05106       -9.25893       82.46269
H         15.57437      -10.79887       82.26845
H         14.58480       -8.91932       83.63030
H         16.17185       -8.09626       83.67683
H         15.37170      -10.85597       84.88593
H         15.49102       -9.27504       85.72347
N         15.61187       -7.67148       80.92449
C         14.97745       -6.86552       79.90800
H         13.89572       -6.75675       80.13156
H         15.44256       -5.85653       79.88702
H         15.11114       -7.33869       78.91234
H         16.37245       -7.24456       81.47483
Ca        19.72741      -11.09345       87.05955
O         18.51326      -13.38189       85.63874
H         19.11100      -12.85630       85.04996
H         18.83491      -14.31235       85.54430
O         21.97759      -10.41834       89.57856
H         22.45448      -10.14070       90.39994
H         22.60701      -11.02778       89.11763
O         18.86787      -11.48124       90.56779
H         19.85232      -11.52673       90.49523
H         18.70756      -11.30984       91.52799
O         16.88193      -12.49428       88.58853
H         16.37035      -13.28621       88.28705
H         16.33930      -12.10753       89.32093

Ca 1.0



