%chk=apoCaM-CA-Ng.loop2.water5.frame1483.chk
%nprocshared=20
%mem=10GB
%nosave
#b3lyp/svp scf=(tight,noincore,xqc) Test 
#IOP(5/87=12) Density=Current Pop=(MK,readradii) iop(6/33=2) iop(6/42=6)

apoCaM-CA-Ng.loop2.water5.frame1483 

   -2  1 
C         28.07003       77.62419       57.49238
C         28.90391       78.86606       57.37530
O         29.50722       79.25594       58.36451
H         27.01049       77.84736       57.25854
H         28.45689       76.84887       56.79941
H         28.12987       77.21823       58.52502
N         29.04479       79.54928       56.20606
C         28.44411       79.17056       54.92942
C         27.98086       80.39119       54.11586
O         27.50059       80.18123       53.00990
C         29.40562       78.22182       54.16054
C         30.83511       78.67454       54.23558
O         31.67527       77.98123       54.78557
O         31.15726       79.89387       53.79682
H         29.72864       80.32119       56.19922
H         27.51284       78.58466       55.08498
H         29.06801       78.09116       53.10955
H         29.35984       77.22080       54.64100
N         27.99674       81.67404       54.60672
C         27.41443       82.80139       53.87240
C         28.18006       83.18835       52.61595
O         27.65287       83.99418       51.86039
C         27.28793       84.03496       54.77536
H         28.33219       81.85139       55.56276
H         26.38251       82.50706       53.57435
H         26.78201       84.86402       54.23321
H         26.67638       83.78945       55.66911
H         28.29066       84.38149       55.10467
N         29.40732       82.67198       52.31566
C         30.11280       82.97795       51.07201
C         30.20258       81.74278       50.17102
O         30.39677       81.91901       48.97613
C         31.50651       83.61076       51.34911
C         32.37061       82.70140       52.17475
O         32.91948       83.06463       53.34505
O         32.54474       81.55567       51.81253
H         29.85058       82.02630       52.98152
H         29.53288       83.72278       50.48504
H         31.38826       84.57708       51.88438
H         32.01203       83.80818       50.37911
N         30.07835       80.46852       50.66000
C         30.09140       79.26629       49.83684
C         31.36296       79.01723       49.03931
O         31.36598       78.05093       48.28879
H         29.92773       80.31828       51.66290
H         29.24177       79.33115       49.12384
H         29.91793       78.38118       50.48875
N         32.45162       79.84026       49.09515
C         33.59014       79.74072       48.19322
C         34.93883       79.59492       48.90192
O         35.89900       79.25807       48.22514
C         33.58976       81.03627       47.35522
C         34.65383       81.07448       46.29420
N         35.62143       82.02053       46.32577
O         34.63956       80.24779       45.39495
H         32.44049       80.64108       49.72399
H         33.46319       78.86337       47.52094
H         33.71812       81.89694       48.05159
H         32.60116       81.15583       46.86068
H         35.65157       82.72270       47.08026
H         36.34799       82.04956       45.59640
N         35.12316       79.89956       50.22077
C         36.45668       79.87450       50.81639
C         36.48844       80.32712       52.27198
O         35.44209       80.59752       52.83838
H         34.32512       80.20750       50.78116
H         37.09645       80.56877       50.22909
H         36.87080       78.84535       50.75307
N         37.66001       80.46634       52.96856
C         38.99388       80.25816       52.41327
C         39.76451       79.15842       53.14727
O         40.68968       78.62606       52.55213
C         39.75388       81.61238       52.43683
C         41.11309       81.57191       51.73269
O         38.97472       82.59383       51.79773
H         37.59377       80.80607       53.94010
H         38.91891       79.93425       51.35627
H         39.94032       81.90760       53.49837
H         38.45462       83.06435       52.50140
H         41.58000       82.58001       51.77416
H         41.80650       80.86070       52.22355
H         40.98545       81.29005       50.66546
N         39.48836       78.79717       54.44201
C         40.25266       77.78128       55.17210
C         39.33628       76.70981       55.78097
O         38.27796       77.06685       56.27698
C         41.14564       78.41359       56.27841
C         40.34227       79.27685       57.28561
C         42.28659       79.22038       55.62828
C         41.15030       79.65265       58.52784
H         38.74622       79.28519       54.95749
H         40.94442       77.29381       54.46724
H         41.61629       77.56759       56.82934
H         39.46610       78.71101       57.65770
H         39.97272       80.19920       56.78643
H         43.00300       79.59457       56.38529
H         42.86605       78.57032       54.93716
H         41.88702       80.08139       55.05210
H         40.51244       80.24875       59.21355
H         41.46994       78.73046       59.05962
H         42.04190       80.25942       58.27744
N         39.65037       75.37317       55.81505
C         40.87413       74.79085       55.26944
C         41.50652       73.71760       56.15286
O         40.93526       73.29389       57.14653
C         40.60781       74.30625       53.82526
C         39.55464       73.23355       53.68770
O         38.93292       72.70783       54.76091
O         39.25472       72.83493       52.57394
H         38.94491       74.73206       56.21004
H         41.66689       75.55773       55.23017
H         41.54811       73.93347       53.36905
H         40.27521       75.18497       53.23023
N         42.74796       73.26711       55.81604
C         43.52998       72.25180       56.52152
C         43.90706       72.70668       57.93306
O         44.36408       73.83619       58.05005
C         44.86354       72.06284       55.74173
C         45.67722       70.88332       56.20751
C         45.25215       69.58114       55.89558
C         46.87031       71.06389       56.92830
C         46.00622       68.47689       56.29998
C         47.61655       69.95447       57.34078
C         47.18593       68.66275       57.02478
H         43.17369       73.68821       54.97523
H         42.97026       71.29351       56.51170
H         45.45559       73.00242       55.83156
H         44.67356       71.91587       54.65615
H         44.34161       69.42499       55.33051
H         47.21699       72.05821       57.18122
H         45.67581       67.47748       56.04907
H         48.52987       70.09532       57.90432
H         47.76709       67.80557       57.33896
N         43.90477       71.87334       59.02643
C         43.53469       70.46649       59.02330
C         42.03815       70.27787       59.07189
O         41.48304       69.59469       58.22373
C         44.20100       69.89257       60.29540
C         45.33278       70.87775       60.53942
C         44.62200       72.19099       60.24482
H         44.00705       69.96664       58.15851
H         43.53491       69.98933       61.18011
H         44.49347       68.82276       60.22278
H         45.78563       70.81218       61.55156
H         46.12255       70.72109       59.77224
H         43.88998       72.40171       61.05616
H         45.32220       73.04850       60.16175
N         41.33580       70.83143       60.10227
C         39.93397       70.57588       60.36384
C         39.86743       69.44629       61.38297
O         40.37616       69.62701       62.48107
C         39.27132       71.84285       60.95344
C         39.33234       73.04454       60.00163
C         38.76956       74.27315       60.65850
O         37.80244       74.84176       60.17847
O         39.34544       74.76562       61.77308
H         41.84982       71.36164       60.81990
H         39.41201       70.30799       59.42248
H         39.79728       72.11338       61.89762
H         38.20867       71.62645       61.20024
H         38.76327       72.80777       59.07632
H         40.38593       73.26375       59.72910
N         39.30180       68.23463       61.12137
C         38.70394       67.87736       59.85491
H         37.84711       68.54727       59.63431
H         39.46007       67.94191       59.04440
H         38.33285       66.83145       59.89834
H         39.31277       67.51736       61.86337
Ca        32.81767       81.20296       54.57051
O         31.53125       82.58576       56.73301
H         30.88574       82.12387       57.32387
H         31.00441       82.83027       55.93050
O         32.92626       79.35483       56.97187
H         33.19992       78.78458       57.73254
H         31.94186       79.41622       57.04901
O         33.83154       77.92732       52.19228
H         32.84495       77.95696       52.12095
H         34.12915       77.54498       51.32876
O         35.48356       81.85379       55.86193
H         36.25202       81.23305       55.92145
H         34.95732       81.67360       56.68103
O         35.31611       78.59881       55.12250
H         35.38374       78.36486       56.08202
H         35.99060       78.02589       54.67880

Ca 1.0



