%chk=apoCaM-CA-Ng.loop1.water5.frame617.chk
%nprocshared=20
%mem=10GB
%nosave
#b3lyp/svp scf=(tight,noincore,xqc) Test 
#IOP(5/87=12) Density=Current Pop=(MK,readradii) iop(6/33=2) iop(6/42=6)

apoCaM-CA-Ng.loop1.water5.frame617 

   0  1 
C         62.28521       23.65014      108.62645
C         61.90457       25.08016      108.87507
O         61.72869       25.83597      107.93060
H         63.25812       23.42038      109.10805
H         61.50389       22.99136      109.06583
H         62.35049       23.43823      107.53914
N         61.70112       25.49976      110.14993
C         61.17871       26.82097      110.48283
C         62.05998       28.00256      110.08058
O         63.27825       27.95882      110.16466
C         60.68769       26.93020      111.93560
C         61.65246       26.47733      112.98472
O         62.84773       25.93971      112.65513
O         61.29682       26.51113      114.15127
H         61.82693       24.79958      110.89520
H         60.24045       26.93063      109.89885
H         59.79290       26.28290      112.04432
H         60.37060       27.98069      112.13288
N         61.41625       29.11441      109.62012
C         61.99844       30.32276      109.03471
C         63.01957       31.07350      109.88094
O         63.71083       31.91484      109.32062
C         60.83295       31.26947      108.62566
C         60.03188       31.76676      109.85600
C         58.75129       32.54116      109.48328
C         58.12330       33.23874      110.71123
N         57.63390       32.31914      111.75178
H         60.38923       29.05095      109.60664
H         62.54468       29.99391      108.12747
H         60.15364       30.69825      107.95472
H         61.21813       32.14394      108.06133
H         60.69651       32.41778      110.46161
H         59.73790       30.90801      110.48612
H         58.01311       31.86867      108.99141
H         59.02160       33.34232      108.76240
H         57.28007       33.88669      110.38009
H         58.89791       33.91191      111.13957
H         57.80122       32.74920      112.69086
H         56.60530       32.16745      111.64392
H         58.10223       31.38939      111.74385
N         63.16954       30.86024      111.21536
C         64.22688       31.51279      111.99326
C         65.55787       30.79220      111.78853
O         65.54606       29.64164      111.37739
C         63.84595       31.57733      113.49722
C         63.41369       30.27495      114.08940
O         62.68465       30.25201      115.06800
O         63.84240       29.12701      113.56346
H         62.51581       30.21606      111.67930
H         64.32584       32.56719      111.65537
H         62.99355       32.27735      113.60225
H         64.67515       31.96222      114.12524
N         66.76469       31.36959      112.06414
C         66.94973       32.79371      112.29833
C         66.90821       33.58041      110.98927
O         66.80804       34.79764      111.03164
H         67.61565       30.79342      111.96120
H         67.95995       32.96239      112.73068
H         66.22204       33.16373      113.04486
N         67.07014       32.93160      109.79493
C         67.14844       33.54244      108.46152
C         67.33522       32.46865      107.38143
O         67.41352       31.28277      107.68025
C         68.31288       34.57564      108.38363
C         69.64300       34.08099      108.88952
O         70.56085       34.97578      109.30255
O         69.89810       32.88875      108.94929
H         67.19603       31.91739      109.84412
H         66.19670       34.07052      108.23304
H         68.03877       35.47189      108.97258
H         68.46718       34.96923      107.35639
N         67.46062       32.83813      106.07884
C         67.79660       31.89762      105.03101
C         66.68108       30.95667      104.64726
O         66.97868       30.00839      103.93835
H         67.40982       33.83335      105.82638
H         68.70904       31.33184      105.32637
H         68.05574       32.46238      104.11013
N         65.36690       31.20646      104.93184
C         64.30819       30.42421      104.29604
C         64.05396       29.08375      104.97024
O         63.88751       28.99994      106.17783
C         63.02822       31.22656      103.99195
C         62.16279       31.55617      105.20698
O         63.40011       32.40191      103.31533
H         65.11932       32.07463      105.42827
H         64.65447       30.22579      103.25495
H         62.41367       30.59214      103.30794
H         62.56858       32.86455      103.03758
H         61.81075       30.62378      105.69403
H         62.71071       32.18598      105.93405
H         61.26173       32.10594      104.85696
N         64.02806       27.98376      104.17982
C         63.85616       26.59422      104.58542
C         65.22306       25.95982      104.61247
O         65.54489       25.25790      105.56247
C         62.93278       25.90353      103.54478
C         61.50333       26.47730      103.66681
C         62.96508       24.36942      103.69697
C         60.63713       26.13040      102.45673
H         64.17401       28.14500      103.17372
H         63.41811       26.49534      105.60686
H         63.31063       26.13724      102.52255
H         61.54259       27.58850      103.70055
H         61.03024       26.12186      104.60774
H         63.94783       23.98716      103.34213
H         62.83154       24.07813      104.75913
H         62.19920       23.86201      103.08241
H         61.09402       26.55966      101.53751
H         60.52234       25.03852      102.32471
H         59.62856       26.57156      102.58805
N         66.11583       26.26291      103.63506
C         67.50982       25.88995      103.67755
C         67.98694       25.61125      102.26293
O         67.51425       26.23483      101.32047
C         68.34435       27.04370      104.28948
C         67.91127       27.38482      105.73445
O         69.69924       26.66973      104.28136
H         65.83886       26.92185      102.89839
H         67.65618       24.99078      104.31710
H         68.21383       27.94041      103.64900
H         70.20888       27.36301      104.77574
H         66.85429       27.71728      105.79211
H         68.05559       26.50540      106.39752
H         68.52736       28.22260      106.12614
N         68.95399       24.68596      102.05365
C         69.53133       24.41690      100.73602
C         70.35937       23.14393      100.74744
O         70.25681       22.38077       99.79602
C         70.37195       25.61602      100.23496
C         70.85827       25.42091       98.79177
O         71.47647       25.80056      101.08370
H         69.26608       24.16805      102.88379
H         68.68787       24.25100      100.02610
H         69.72163       26.52034      100.23795
H         71.64961       26.77491      101.13943
H         71.56929       24.57112       98.71795
H         69.99888       25.23066       98.11213
H         71.37694       26.34002       98.44716
N         71.15872       22.81935      101.80674
C         71.77499       21.51385      101.93745
C         71.87557       21.11328      103.39711
O         72.45175       21.81820      104.21408
C         73.13750       21.38613      101.22193
C         73.64130       19.92907      101.38356
C         74.88962       19.56639      100.57648
C         75.04754       18.03010      100.56108
N         76.23455       17.60568       99.82129
H         71.18748       23.43868      102.62708
H         71.10408       20.77720      101.43610
H         73.87476       22.11345      101.62154
H         72.97967       21.59276      100.13974
H         72.81702       19.26445      101.04690
H         73.85311       19.70672      102.45439
H         75.78215       20.06432      101.01501
H         74.76196       19.90603       99.52714
H         74.14705       17.59564      100.06848
H         75.09619       17.62406      101.59671
H         76.28606       18.08857       98.89551
H         77.09250       17.81058      100.38183
H         76.17846       16.57364       99.65628
N         71.39262       19.89394      103.73338
C         71.49309       19.25162      105.02871
C         70.54468       19.88847      106.04173
O         71.03437       20.29470      107.08575
C         71.30270       17.74974      104.77130
C         71.65367       16.81663      105.92473
C         71.70795       15.38076      105.44894
O         72.00574       14.40409      106.32295
O         71.52084       15.09025      104.27476
H         71.00943       19.32555      102.96244
H         72.54266       19.35327      105.39509
H         72.02807       17.51052      103.95708
H         70.27939       17.54079      104.39630
H         70.90396       16.92968      106.73417
H         72.66046       17.07547      106.31883
N         69.20734       20.09871      105.83427
C         68.44001       19.67386      104.68036
H         67.48610       20.24460      104.64627
H         68.94877       19.87757      103.72256
H         68.18078       18.60125      104.77947
H         68.68978       20.63093      106.55159
Ca        64.59635       27.28349      112.62770
O         65.95411       24.88640      113.60256
H         66.74382       24.66352      113.04863
H         66.28344       24.84148      114.53375
O         65.60238       25.24161      110.74828
H         65.51136       25.35032      109.76984
H         65.16292       24.37733      110.95002
O         66.31849       28.73676      114.73862
H         67.29578       28.79386      114.87340
H         65.95464       29.51817      115.22492
O         64.07938       26.75879      115.57350
H         63.69752       27.66412      115.47074
H         63.42713       26.16514      115.13135
O         67.64403       27.21230      112.47391
H         68.07902       26.95881      111.62213
H         68.35279       27.67282      112.98848

Ca 1.0



