%chk=apoCaM-CA-Ng.loop3.water6.frame291.chk
%nprocshared=20
%mem=10GB
%nosave
#b3lyp/svp scf=(tight,noincore,xqc) Test 
#IOP(5/87=12) Density=Current Pop=(MK,readradii) iop(6/33=2) iop(6/42=6)

apoCaM-CA-Ng.loop3.water6.frame291 

   0  1 
C         63.75272       32.35681       11.82882
C         64.23466       31.84560       10.50395
O         63.72232       30.83256       10.05415
H         62.66607       32.57833       11.76489
H         63.91916       31.58325       12.60765
H         64.28659       33.28296       12.12666
N         65.21681       32.50208        9.81601
C         65.72581       32.08802        8.51009
C         66.46625       30.74783        8.56671
O         66.73804       30.18163        7.51675
C         64.58507       32.13227        7.46263
C         65.07609       31.94810        6.05273
O         64.65815       31.02576        5.37089
O         65.97149       32.80880        5.53136
H         65.61728       33.35894       10.22705
H         66.47606       32.84143        8.18151
H         64.09611       33.12851        7.51050
H         63.82253       31.36648        7.68879
N         66.92540       30.22654        9.74545
C         67.69696       28.98256        9.79424
C         66.81996       27.76402        9.54180
O         67.35487       26.68109        9.34669
C         68.40118       28.81358       11.15826
C         69.38430       29.96063       11.44177
C         70.09970       29.76595       12.78208
C         71.05704       30.93388       13.05559
N         71.75754       30.75329       14.32577
H         66.77244       30.75024       10.61863
H         68.48609       29.03218        9.01031
H         68.97181       27.85801       11.15564
H         67.63839       28.76385       11.96747
H         68.84170       30.92868       11.47039
H         70.14019       30.00282       10.62718
H         70.67324       28.81345       12.75881
H         69.34760       29.71143       13.59987
H         70.47976       31.88523       13.08780
H         71.80337       31.00455       12.23314
H         72.33087       29.87904       14.29745
H         72.39200       31.56927       14.48387
H         71.07009       30.70108       15.11225
N         65.46247       27.85351        9.60372
C         64.56649       26.71562        9.44372
C         64.61073       26.18829        8.01485
O         65.07559       26.88238        7.11993
C         63.14802       27.18732        9.84259
C         62.04991       26.17425        9.78990
O         61.08720       26.36689        9.06697
O         62.04519       25.11384       10.61168
H         65.04468       28.76102        9.84043
H         64.89349       25.91634       10.14534
H         62.87212       28.03623        9.19096
H         63.18097       27.57581       10.88352
N         64.15024       24.93754        7.74043
C         64.10169       24.36542        6.40512
C         63.09514       25.09237        5.55251
O         63.41807       25.51278        4.45074
H         63.81669       24.35031        8.51934
H         63.75323       23.31352        6.48971
H         65.11111       24.35509        5.93679
N         61.83860       25.28744        6.03635
C         60.77520       25.96989        5.31282
C         60.69643       27.44451        5.70698
O         59.84156       28.14637        5.18460
C         59.43485       25.25501        5.59800
C         59.45567       23.79031        5.21258
N         58.58199       23.29938        4.30404
O         60.25585       23.03261        5.74129
H         61.64002       24.98012        6.99996
H         60.97180       25.93687        4.21802
H         58.62095       25.77453        5.04831
H         59.20979       25.32522        6.68446
H         57.88721       23.90980        3.85147
H         58.59673       22.29829        4.05712
N         61.58231       27.99443        6.58835
C         61.61057       29.39651        6.96718
C         60.39905       29.85017        7.74438
O         59.44399       29.10369        7.90239
H         62.32268       27.41005        6.99174
H         61.73871       30.03210        6.06503
H         62.49019       29.55655        7.61851
N         60.38480       31.11426        8.25417
C         59.23222       31.68362        8.94420
C         58.94629       30.95879       10.25057
O         59.76197       30.17166       10.70996
C         59.38742       33.20690        9.19186
C         59.52102       33.98520        7.89747
C         60.76713       34.12857        7.25826
C         58.38772       34.57630        7.31117
C         60.87175       34.81824        6.04892
C         58.49566       35.27023        6.10102
C         59.73873       35.38664        5.46256
O         59.85748       36.04186        4.29033
H         61.22020       31.68780        8.10259
H         58.35137       31.54450        8.27651
H         60.23716       33.43659        9.87117
H         58.46895       33.55831        9.71162
H         61.66740       33.71685        7.68828
H         57.41674       34.48977        7.78292
H         61.83752       34.90877        5.56728
H         57.61206       35.71180        5.65803
H         59.09800       36.44406        3.84573
N         57.73801       31.13590       10.85356
C         57.27615       30.36810       12.00542
C         56.36492       29.26422       11.49172
O         56.54080       28.12711       11.90667
C         56.57960       31.28419       13.05543
C         57.56068       32.38729       13.53415
C         56.08496       30.44654       14.25831
C         56.93263       33.40556       14.49031
H         57.06206       31.76533       10.39541
H         58.13277       29.87401       12.51962
H         55.70034       31.76631       12.57280
H         57.92661       32.95795       12.65452
H         58.43907       31.91973       14.03175
H         56.94029       29.96940       14.78265
H         55.51976       31.06743       14.98121
H         55.39187       29.64555       13.94139
H         57.68636       34.17853       14.74981
H         56.06581       33.90325       14.00665
H         56.60598       32.93489       15.43921
N         55.42931       29.49997       10.52181
C         54.64025       28.42548        9.92749
C         53.57984       27.88727       10.87254
O         52.95036       26.89931       10.52175
C         53.99869       28.88184        8.60736
O         53.10198       29.93392        8.83298
H         55.33569       30.44888       10.13341
H         55.33675       27.59633        9.66458
H         53.46317       28.02410        8.14085
H         54.80943       29.21509        7.91961
H         52.78137       30.21372        7.93633
N         53.33463       28.46551       12.08858
C         52.35899       27.97483       13.05561
C         52.68293       26.57857       13.57955
O         51.88994       26.07245       14.36501
C         50.94045       28.04828       12.46907
H         53.84681       29.31355       12.35774
H         52.36912       28.65792       13.93476
H         50.80740       27.36469       11.60736
H         50.19169       27.77526       13.24298
H         50.72570       29.08725       12.13847
N         53.81797       25.89860       13.22801
C         54.12244       24.55173       13.69117
C         55.39434       24.53252       14.51850
O         56.04461       25.56138       14.66355
C         54.22310       23.61685       12.48201
H         54.51480       26.33528       12.60932
H         53.30707       24.17329       14.34543
H         55.02702       23.94528       11.79386
H         54.42830       22.57363       12.79805
H         53.26366       23.62919       11.92223
N         55.76011       23.38845       15.16427
C         56.87233       23.28434       16.10229
C         56.71687       24.32276       17.19981
O         57.61479       25.12376       17.42420
C         58.25292       23.35452       15.40813
C         58.45942       22.19812       14.41981
C         59.88283       22.14748       13.94140
O         60.13773       22.21952       12.75259
O         60.88653       21.98089       14.82469
H         55.16131       22.55452       15.05720
H         56.81689       22.28676       16.59293
H         59.02287       23.26071       16.20663
H         58.40310       24.32880       14.89494
H         57.75980       22.30823       13.56224
H         58.25015       21.23189       14.92581
N         55.56343       24.37053       17.91901
C         55.34685       25.35413       18.95587
H         54.33458       25.22428       19.39329
H         56.10448       25.23138       19.75817
H         55.42042       26.37683       18.52761
H         54.80925       23.69768       17.71425
Ca        60.06298       24.04552       10.68281
O         61.42732       22.16123        8.96338
H         60.68456       21.50645        8.96233
H         61.13126       22.87180        8.34075
O         60.17205       26.77205       12.88448
H         59.71538       26.68648       13.75897
H         61.08891       26.43708       13.04937
O         57.42908       24.89463       11.89817
H         57.80513       25.38656       12.66885
H         56.79441       25.53107       11.48390
O         57.78628       22.09098       10.71397
H         57.96201       21.14808       10.46987
H         56.91906       22.30431       10.28723
O         57.45536       24.56059        8.66152
H         56.93865       25.31864        8.28909
H         57.34577       23.83514        7.99725
O         58.55037       26.96424       10.11213
H         58.77674       27.84457       10.49899
H         58.35607       27.15293        9.16121

Ca 1.0



