%chk=apoCaM-CA-Ng.loop2.water4.frame165.chk
%nprocshared=20
%mem=10GB
%nosave
#b3lyp/svp scf=(tight,noincore,xqc) Test 
#IOP(5/87=12) Density=Current Pop=(MK,readradii) iop(6/33=2) iop(6/42=6)

apoCaM-CA-Ng.loop2.water4.frame165 

   -2  1 
C         85.36155       60.64965       46.26020
C         86.43610       60.69122       47.30447
O         86.75242       59.66130       47.88264
H         84.53186       61.32678       46.55418
H         85.77735       60.98543       45.28699
H         84.96069       59.62036       46.14491
N         87.03614       61.87527       47.60283
C         88.08556       62.02608       48.60131
C         87.61133       62.89119       49.76927
O         88.42369       63.16666       50.63681
C         89.33398       62.60733       47.90054
C         90.53684       62.67441       48.80300
O         91.02507       61.55113       49.36409
O         91.08168       63.74428       49.02329
H         86.72879       62.72195       47.09743
H         88.36763       61.03741       49.02673
H         89.09947       63.61827       47.49954
H         89.60274       61.94966       47.04538
N         86.31394       63.32620       49.87471
C         85.76436       64.12452       50.97187
C         85.71115       63.36331       52.32461
O         84.92352       62.22097       52.18927
C         86.44481       65.49465       51.07345
H         85.64161       63.08321       49.13396
H         84.69984       64.34071       50.72434
H         86.35094       66.02801       50.10337
H         85.94322       66.10398       51.85546
H         87.52113       65.41871       51.32065
N         87.02012       62.99084       52.85439
C         86.95902       62.26588       54.14287
C         87.75555       60.96855       54.06607
O         88.00541       60.36606       55.10081
C         87.34178       63.18250       55.32979
C         88.71667       63.78104       55.21928
O         89.70475       63.06664       55.18079
O         88.85913       65.11963       55.16156
H         87.63846       63.82841       52.91555
H         85.92254       61.93129       54.37522
H         87.26566       62.61435       56.28178
H         86.59816       64.00913       55.37482
N         88.06746       60.40761       52.85819
C         88.69483       59.10425       52.70135
C         87.87220       58.02148       53.36378
O         88.40869       57.26363       54.15939
H         87.79803       60.88748       51.98781
H         89.72748       59.11996       53.11196
H         88.75984       58.87663       51.61434
N         86.53517       57.93861       53.12280
C         85.65767       56.99297       53.80410
C         85.79365       55.59409       53.23574
O         85.60638       55.39908       52.04317
C         84.19363       57.45470       53.70072
C         83.97218       58.73857       54.46098
N         84.13986       58.77701       55.80512
O         83.62776       59.74664       53.86390
H         86.11328       58.64633       52.50077
H         85.90702       56.97528       54.88737
H         83.51803       56.68786       54.13906
H         83.93267       57.58644       52.63130
H         84.41107       57.93341       56.33126
H         83.98570       59.64839       56.32974
N         86.07427       54.55703       54.07062
C         86.16983       53.16958       53.65501
C         84.85778       52.62437       53.13524
O         83.84741       52.76598       53.81143
H         86.21992       54.75324       55.07299
H         86.42615       52.56665       54.55381
H         86.99044       53.03876       52.91846
N         84.82250       51.88721       51.98559
C         83.62201       51.16878       51.55887
C         82.55889       52.07148       50.94545
O         81.44853       51.59553       50.76311
C         83.95673       49.98190       50.61059
C         84.53893       50.39746       49.24961
O         84.80626       49.06326       51.25445
H         85.71297       51.72458       51.49431
H         83.17886       50.70263       52.46891
H         83.00911       49.44074       50.39410
H         85.72532       49.43700       51.25889
H         83.82275       51.03485       48.70627
H         85.49356       50.95014       49.35900
H         84.72309       49.49349       48.63158
N         82.82344       53.35825       50.56763
C         81.80829       54.23700       49.98493
C         81.63481       55.49279       50.80904
O         82.37694       55.72976       51.74830
C         82.12561       54.57566       48.48783
C         83.57429       55.05518       48.18979
C         81.81775       53.35661       47.60798
C         83.97772       56.36699       48.85911
H         83.77524       53.73116       50.68151
H         80.80918       53.74955       50.01414
H         81.42299       55.36377       48.13881
H         83.66130       55.22416       47.09380
H         84.30745       54.26599       48.46264
H         81.96248       53.60569       46.53490
H         82.47314       52.50842       47.86254
H         80.76022       53.04235       47.74009
H         84.02045       56.26444       49.95753
H         84.99619       56.65229       48.51988
H         83.27304       57.17692       48.57756
N         80.61498       56.34027       50.49722
C         80.40428       57.62825       51.13914
C         79.00953       58.10348       50.75768
O         78.86811       59.08247       50.04799
C         81.52661       58.59350       50.68680
C         81.51334       59.92782       51.37422
O         82.35968       60.75308       51.07507
O         80.60352       60.22327       52.32342
H         79.95843       56.04989       49.75607
H         80.43547       57.51028       52.24578
H         81.45490       58.74744       49.58775
H         82.51464       58.14089       50.89818
N         77.93818       57.37948       51.19510
C         76.51900       57.55246       50.87430
C         76.18995       58.64613       49.85878
O         76.32757       58.39098       48.67195
C         75.99534       56.17135       50.39900
C         74.56854       56.11239       49.90042
C         73.50807       56.66965       50.63333
C         74.28909       55.45068       48.68809
C         72.19580       56.57384       50.15565
C         72.97563       55.34082       48.22573
C         71.92942       55.90490       48.95722
H         78.14883       56.59380       51.83110
H         75.99923       57.78572       51.82446
H         76.08745       55.46937       51.25506
H         76.66930       55.79206       49.59690
H         73.69413       57.18395       51.56615
H         75.08416       54.99661       48.10845
H         71.38267       57.01253       50.71815
H         72.76957       54.81346       47.30239
H         70.91255       55.81994       48.59620
N         75.67223       59.86140       50.23295
C         75.17083       60.85224       49.28914
C         76.25879       61.52635       48.46682
O         75.92891       62.07649       47.42529
C         74.39400       61.83053       50.18178
C         75.18520       61.78420       51.47303
C         75.48239       60.29153       51.60416
H         74.45198       60.38284       48.58147
H         74.21401       62.83954       49.75253
H         73.40477       61.37320       50.41570
H         76.14318       62.32248       51.29476
H         74.69052       62.23135       52.36213
H         76.39151       60.16036       52.23123
H         74.62383       59.73108       52.03558
N         77.56115       61.55279       48.86342
C         78.61733       62.15323       48.04955
C         79.09280       61.21475       46.94103
O         79.89312       61.64273       46.12006
C         79.83147       62.49960       48.92217
C         79.49879       63.50680       50.03410
C         80.72517       63.71488       50.85747
O         81.73816       64.16340       50.34260
O         80.76335       63.29121       52.13232
H         77.79676       61.17737       49.79043
H         78.24046       63.10042       47.60296
H         80.63421       62.93118       48.28229
H         80.21935       61.56059       49.37712
H         78.69711       63.10433       50.68751
H         79.15939       64.47371       49.60488
N         78.69813       59.91254       46.87954
C         79.19208       58.99059       45.88057
H         80.29748       58.90584       45.95601
H         78.75391       57.98264       46.04997
H         78.90879       59.33789       44.86583
H         78.05356       59.54036       47.57952
Ca        82.87606       62.97307       52.76949
O         80.75425       63.87845       55.19819
H         79.85791       63.79390       54.78615
H         80.58852       63.80267       56.17129
O         83.72238       62.48966       56.01905
H         83.71171       61.92842       56.83384
H         84.08570       63.35675       56.32754
O         81.08854       60.69530       55.58255
H         80.12901       60.72150       55.33999
H         81.27044       59.74069       55.77184
O         83.85810       65.45227       54.14447
H         83.26668       65.19517       54.89536
H         83.23588       65.67888       53.40820

Ca 1.0



