%chk=apoCaM-CA-Ng.loop3.water5.frame407.chk
%nprocshared=20
%mem=10GB
%nosave
#b3lyp/svp scf=(tight,noincore,xqc) Test 
#IOP(5/87=12) Density=Current Pop=(MK,readradii) iop(6/33=2) iop(6/42=6)

apoCaM-CA-Ng.loop3.water5.frame407 

   0  1 
C        118.27662       98.82517      -22.88556
C        119.69422       98.59388      -23.31859
O        120.42508       99.56197      -23.47200
H        117.71661       97.87018      -22.80126
H        118.26320       99.33616      -21.90099
H        117.76489       99.46510      -23.63562
N        120.14764       97.33021      -23.55488
C        121.48920       97.03501      -24.04397
C        122.23231       96.14125      -23.05059
O        121.65557       95.72226      -22.05577
C        121.32493       96.39617      -25.44528
C        122.60269       96.17675      -26.20166
O        123.40828       97.21802      -26.48729
O        122.89923       95.05925      -26.59221
H        119.50075       96.53712      -23.42044
H        122.07344       97.97516      -24.15216
H        120.71044       97.08270      -26.06747
H        120.77177       95.43559      -25.34815
N        123.53797       95.82034      -23.26406
C        124.32863       94.95671      -22.38858
C        124.53355       95.62577      -21.04150
O        124.94159       96.77824      -20.99981
C        125.67035       94.59677      -23.06982
C        125.39060       93.77535      -24.34728
C        126.64465       93.40464      -25.13896
C        126.23618       92.64910      -26.41717
N        127.39837       92.30779      -27.23328
H        123.99819       96.21430      -24.09446
H        123.79689       93.99002      -22.23970
H        126.28602       93.97763      -22.38072
H        126.23479       95.52339      -23.31462
H        124.74367       94.36061      -25.02530
H        124.84817       92.84406      -24.06971
H        127.31195       92.76951      -24.51722
H        127.18612       94.33348      -25.42159
H        125.54921       93.28563      -27.02042
H        125.69166       91.71726      -26.14384
H        127.90212       93.17826      -27.51991
H        128.04152       91.68096      -26.69846
H        127.07296       91.80865      -28.09312
N        124.26002       94.94256      -19.89263
C        124.29405       95.52950      -18.55702
C        125.45212       94.95363      -17.75839
O        125.73123       93.76887      -17.87946
C        122.94450       95.24591      -17.87358
C        122.81080       95.97673      -16.56978
O        122.65346       95.29591      -15.42196
O        122.82556       97.19683      -16.54920
H        123.99507       93.94765      -19.96521
H        124.42086       96.63328      -18.62323
H        122.83241       94.14980      -17.71644
H        122.11670       95.58478      -18.53409
N        126.20048       95.75610      -16.94518
C        127.41848       95.30400      -16.28838
C        127.26434       94.15327      -15.30999
O        128.29255       93.60777      -14.93499
H        125.94211       96.74960      -16.84550
H        127.90424       96.15262      -15.75758
H        128.11329       94.97236      -17.08896
N        126.05929       93.73763      -14.82050
C        125.93389       92.58675      -13.92020
C        124.78721       91.65034      -14.30577
O        124.51854       90.71882      -13.55934
C        125.90302       93.04557      -12.44798
C        124.73864       93.88928      -12.03005
N        124.69126       94.36108      -10.76365
O        123.84148       94.15045      -12.81362
H        125.21560       94.28467      -15.04561
H        126.85335       91.96325      -13.97071
H        126.82941       93.63110      -12.25783
H        125.93023       92.15044      -11.78818
H        125.44228       94.14290      -10.09144
H        123.90863       94.94757      -10.45206
N        124.11931       91.78117      -15.48909
C        123.08529       90.86394      -15.93465
C        121.80812       91.03033      -15.15720
O        121.31602       90.06584      -14.58939
H        124.38878       92.51776      -16.15155
H        123.46048       89.81756      -15.89882
H        122.83842       91.09553      -16.99394
N        121.19833       92.24684      -15.13317
C        119.90974       92.51083      -14.51334
C        120.12488       93.45344      -13.30222
O        120.13648       94.78941      -13.72518
C        118.97632       93.09260      -15.61070
C        117.68190       93.71081      -15.13154
C        116.69174       92.95446      -14.48627
C        117.45650       95.08306      -15.35673
C        115.49810       93.56457      -14.07503
C        116.27047       95.68786      -14.94368
C        115.28432       94.93037      -14.30191
O        114.13198       95.50440      -13.90068
H        121.67106       93.03113      -15.60333
H        119.47373       91.56185      -14.13279
H        118.75941       92.30298      -16.36244
H        119.54926       93.88431      -16.14336
H        116.84024       91.89779      -14.30634
H        118.20089       95.69213      -15.85529
H        114.73698       92.97637      -13.57908
H        116.12049       96.74502      -15.12662
H        113.95212       96.44584      -14.04025
N        119.08914       93.24737      -12.27983
C        119.41158       93.88533      -10.98955
C        120.74965       93.40276      -10.42354
O        121.58313       94.24911      -10.14434
C        118.24364       93.67385       -9.98539
C        116.86562       94.05528      -10.59382
C        118.48477       94.45252       -8.67800
C        116.75246       95.49881      -11.09842
H        118.95804       92.22370      -12.10899
H        119.49154       94.98214      -11.15323
H        118.18659       92.59291       -9.72618
H        116.07582       93.88164       -9.83121
H        116.64509       93.37858      -11.44572
H        118.57913       95.54199       -8.86537
H        117.64920       94.27914       -7.96739
H        119.41398       94.11558       -8.18467
H        116.92868       96.22919      -10.28402
H        117.46574       95.68732      -11.92725
H        115.72961       95.66804      -11.49294
N        121.04710       92.07583      -10.26306
C        122.37311       91.63816       -9.81276
C        122.63072       91.92126       -8.33955
O        123.78573       91.85743       -7.93319
C        122.60666       90.14954      -10.10951
O        121.70313       89.34492       -9.39725
H        120.35682       91.36847      -10.55108
H        123.12085       92.19202      -10.41824
H        123.66316       89.87628       -9.87059
H        122.47605       89.95813      -11.19591
H        122.19883       88.95693       -8.62928
N        121.61758       92.21434       -7.47456
C        121.78779       92.52823       -6.06068
C        122.61981       93.78946       -5.89844
O        123.60492       93.79993       -5.17972
C        122.34670       91.32540       -5.27991
H        120.65059       92.22578       -7.83119
H        120.78184       92.74743       -5.63939
H        122.39236       91.56197       -4.19547
H        121.68067       90.44690       -5.41623
H        123.36675       91.05139       -5.61806
N        122.25558       94.89927       -6.60105
C        122.97174       96.16495       -6.57013
C        121.99162       97.28260       -6.28841
O        120.98443       97.36578       -6.97244
C        123.62813       96.39508       -7.92892
H        121.44791       94.82929       -7.23383
H        123.78784       96.15879       -5.81552
H        124.35580       95.57953       -8.12619
H        122.86900       96.41067       -8.73897
H        124.17888       97.36021       -7.92849
N        122.24495       98.20022       -5.30732
C        121.37193       99.33267       -4.99393
C        120.05594       98.90874       -4.35004
O        119.25259       99.78526       -4.05671
C        121.11742      100.23106       -6.23403
C        122.41734      100.71360       -6.89298
C        122.11797      101.60623       -8.06416
O        121.44120      102.75671       -7.88233
O        122.49083      101.29708       -9.18481
H        123.12363       98.12276       -4.77594
H        121.89247       99.96253       -4.23775
H        120.53097      101.11972       -5.91160
H        120.50576       99.69834       -6.99120
H        123.00638       99.83774       -7.24285
H        123.02739      101.27932       -6.15735
N        119.76489       97.60798       -4.05777
C        118.51897       97.22730       -3.42886
H        117.66427       97.50786       -4.08011
H        118.49704       96.12896       -3.26448
H        118.41949       97.73453       -2.44531
H        120.43738       96.85628       -4.26040
Ca       121.75109       95.92159      -12.60087
O        123.74875       97.51561      -11.20240
H        123.77012       98.39248      -10.74497
H        124.69331       97.22064      -11.22530
O        124.81527       97.19688      -14.22472
H        124.76363       97.94016      -14.87676
H        125.70744       97.29643      -13.80877
O        122.52351       99.26413      -13.60472
H        122.70255       99.71412      -12.74130
H        122.63491       99.97647      -14.28325
O        120.03612       98.06257      -11.44243
H        120.30748       97.62873      -10.59459
H        119.37414       97.44148      -11.83814
O        120.01743       97.77108      -14.78940
H        119.40763       98.46448      -14.43214
H        120.16179       98.03041      -15.73387

Ca 1.0



