%chk=apoCaM-CA-Ng.loop2.water3.frame972.chk
%nprocshared=20
%mem=10GB
%nosave
#b3lyp/svp scf=(tight,noincore,xqc) Test 
#IOP(5/87=12) Density=Current Pop=(MK,readradii) iop(6/33=2) iop(6/42=6)

apoCaM-CA-Ng.loop2.water3.frame972 

   -2  1 
C         59.10022       26.32933       52.19225
C         58.62212       24.90887       52.22633
O         57.42203       24.68977       52.13746
H         60.20838       26.38433       52.22863
H         58.75779       26.80222       51.24737
H         58.68269       26.89084       53.05326
N         59.50742       23.87860       52.35019
C         59.08517       22.48296       52.32709
C         58.66698       22.04632       50.91807
O         58.20949       20.92077       50.77699
C         60.22247       21.58586       52.86656
C         59.79183       20.15614       53.05737
O         60.36562       19.25592       52.46590
O         58.77635       19.86222       53.89286
H         60.50772       24.09717       52.47985
H         58.22664       22.37633       53.02890
H         60.53789       21.96574       53.86285
H         61.09721       21.63912       52.18149
N         58.79540       22.87191       49.83045
C         58.41991       22.48903       48.47512
C         59.61402       22.67173       47.53909
O         60.08996       23.79479       47.44319
C         57.25965       23.36874       48.00432
H         59.17311       23.82160       49.94657
H         58.05414       21.44976       48.47510
H         57.54975       24.44175       48.00897
H         56.95566       23.08299       46.97473
H         56.38863       23.23682       48.68083
N         60.20017       21.66009       46.82716
C         59.78329       20.26138       46.86647
C         60.88444       19.30656       46.41223
O         61.91535       19.73833       45.91862
C         58.45456       20.03164       46.09121
C         58.41991       20.37555       44.61396
O         57.38139       20.17615       44.00645
O         59.47011       20.88865       43.93795
H         61.03869       21.91142       46.28115
H         59.64445       19.98975       47.93640
H         57.64239       20.62047       46.55355
H         58.17196       18.96286       46.19773
N         60.75015       17.97127       46.65696
C         61.76768       16.97462       46.35979
C         61.13948       15.78659       45.66882
O         61.06505       14.73802       46.29334
H         59.90635       17.64521       47.15334
H         62.16934       16.62217       47.33543
H         62.62440       17.38053       45.78473
N         60.61335       15.83402       44.41358
C         60.72507       16.96282       43.50100
C         62.14579       16.98993       42.94632
O         62.55283       16.02433       42.31534
C         59.64526       16.80268       42.40391
C         59.57407       17.90632       41.39007
N         58.58733       17.89740       40.46352
O         60.39277       18.80771       41.39780
H         60.12825       14.98624       44.07692
H         60.47972       17.90367       44.03765
H         58.65920       16.77386       42.92005
H         59.78520       15.84410       41.86108
H         57.88380       17.14509       40.45450
H         58.51080       18.64228       39.75890
N         62.96851       18.05222       43.17748
C         64.38607       18.06601       42.84003
C         64.70711       18.78448       41.54709
O         65.88367       18.92034       41.24568
H         62.60813       18.84587       43.72013
H         64.79634       17.03390       42.80446
H         64.92202       18.58894       43.66218
N         63.73125       19.25537       40.72380
C         63.98967       19.97422       39.47989
C         63.33213       21.34425       39.51572
O         62.64339       21.67242       40.47025
C         63.48060       19.13368       38.26968
C         64.42090       17.96203       37.99315
O         62.19141       18.62065       38.48976
H         62.75008       19.09700       40.97694
H         65.07560       20.16809       39.34094
H         63.47980       19.73978       37.33761
H         61.61677       19.37428       38.76618
H         64.05655       17.39029       37.11252
H         65.43821       18.34316       37.75750
H         64.47812       17.28108       38.86704
N         63.51109       22.19724       38.46814
C         62.88702       23.50876       38.36371
C         61.83728       23.38738       37.27946
O         62.14478       22.97364       36.17052
C         63.96165       24.60309       38.13082
C         63.30084       25.98720       37.89805
C         64.90502       24.63685       39.35380
C         64.30773       27.10635       37.61751
H         64.08805       21.88661       37.67198
H         62.36419       23.77019       39.30779
H         64.55285       24.33879       37.22623
H         62.67937       26.27127       38.77574
H         62.63633       25.92137       37.01008
H         64.34152       24.92066       40.27020
H         65.36969       23.64332       39.52395
H         65.73804       25.35198       39.21046
H         64.95429       27.30139       38.49688
H         64.94188       26.84576       36.74361
H         63.76261       28.04708       37.39356
N         60.53918       23.63297       37.60104
C         59.39895       23.22170       36.79978
C         58.56842       24.40137       36.33193
O         57.48937       24.16991       35.79835
C         58.55784       22.26491       37.68486
C         59.39019       21.08707       38.11823
O         59.87253       20.37163       37.25397
O         59.63749       20.78159       39.41776
H         60.32546       24.03708       38.52130
H         59.71924       22.66628       35.88855
H         57.69028       21.88223       37.10322
H         58.17558       22.80142       38.57838
N         59.01907       25.68524       36.43127
C         58.24524       26.83996       36.00095
C         58.22681       27.88988       37.09564
O         59.30036       28.34018       37.48241
C         58.83344       27.43615       34.70050
C         58.06027       28.67361       34.28000
C         58.31801       29.91437       34.89618
C         57.05157       28.59719       33.30493
C         57.57329       31.04500       34.56179
C         56.30567       29.73507       32.97257
C         56.56391       30.95568       33.60359
H         59.96976       25.86192       36.79053
H         57.21208       26.53441       35.73470
H         58.74672       26.65133       33.91633
H         59.91290       27.68412       34.79758
H         59.09382       30.01182       35.64234
H         56.82643       27.65629       32.81942
H         57.77762       31.98834       35.05229
H         55.51992       29.67018       32.23184
H         55.98290       31.83322       33.35196
N         57.06209       28.41405       37.58348
C         57.00702       29.60685       38.41327
C         57.44541       29.38553       39.84972
O         57.38724       30.33833       40.61411
C         55.54792       30.05470       38.27854
C         54.81994       28.73531       38.16486
C         55.73182       27.96448       37.21532
H         57.64104       30.41882       37.99063
H         55.18662       30.75527       39.06029
H         55.43417       30.55740       37.28875
H         54.85636       28.25146       39.16720
H         53.76187       28.79627       37.83237
H         55.58028       26.87462       37.37412
H         55.54831       28.23520       36.15186
N         57.93439       28.19022       40.28962
C         58.41285       27.99677       41.65618
C         59.60181       28.88613       42.01533
O         59.94902       28.92804       43.18795
C         58.79277       26.51873       41.88493
C         60.01884       26.08398       41.05348
C         60.28069       24.62585       41.23175
O         59.44436       23.81547       40.87278
O         61.44048       24.20123       41.76621
H         57.94661       27.38813       39.64722
H         57.56715       28.24934       42.33409
H         57.91172       25.89168       41.62297
H         59.01825       26.35459       42.96200
H         60.91446       26.65694       41.37617
H         59.86229       26.27042       39.97055
N         60.30011       29.58385       41.07058
C         61.44643       30.41529       41.37740
H         62.33682       30.02252       40.84269
H         61.24966       31.45208       41.03386
H         61.67500       30.44349       42.46329
H         60.04077       29.51531       40.07709
Ca        59.24704       21.20375       41.65759
O         58.26991       23.55399       43.48029
H         58.16889       24.11034       44.29196
H         57.35687       23.22832       43.27997
O         56.33570       20.97361       40.90334
H         56.07472       21.70226       41.52092
H         56.64710       20.24485       41.49662
O         62.60306       21.73014       43.28364
H         61.97738       21.05281       43.63750
H         62.48906       22.50710       43.88511

Ca 1.0



