%chk=apoCaM-CA-Ng.loop2.water5.frame63.chk
%nprocshared=20
%mem=10GB
%nosave
#b3lyp/svp scf=(tight,noincore,xqc) Test 
#IOP(5/87=12) Density=Current Pop=(MK,readradii) iop(6/33=2) iop(6/42=6)

apoCaM-CA-Ng.loop2.water5.frame63 

   -2  1 
C         47.19970       48.22586      100.75094
C         48.03009       49.40853      100.34261
O         48.34424       49.52067       99.16722
H         46.23343       48.24406      100.20519
H         47.73448       47.28683      100.49680
H         46.99345       48.23026      101.84163
N         48.42997       50.33229      101.26381
C         49.23023       51.50733      100.92965
C         50.60501       51.46993      101.60243
O         51.40603       52.35477      101.33628
C         48.42457       52.76381      101.31426
C         49.08108       54.04131      100.87311
O         49.42142       54.97377      101.78275
O         49.29533       54.24601       99.68864
H         48.14616       50.20401      102.24778
H         49.41589       51.53559       99.83320
H         48.27057       52.77812      102.41556
H         47.42533       52.71458      100.82906
N         50.97073       50.45138      102.43832
C         52.29824       50.28061      103.01963
C         53.34782       50.12362      101.93428
O         54.43685       50.67044      102.04676
C         52.63042       51.39496      104.02205
H         50.29889       49.70289      102.65081
H         52.28490       49.32041      103.58213
H         53.61129       51.19554      104.50450
H         52.68139       52.38451      103.52227
H         51.85354       51.43306      104.81379
N         53.05321       49.39372      100.82188
C         53.96758       49.15045       99.71803
C         54.53926       50.45389       99.20903
O         55.75118       50.61476       99.16010
C         55.03387       48.09302      100.09218
C         54.33956       46.82356      100.50464
O         54.25213       45.80420       99.63417
O         53.66438       46.79767      101.52140
H         52.10562       49.00600      100.72416
H         53.37871       48.70371       98.88189
H         55.71564       48.43874      100.89679
H         55.63688       47.88839       99.17913
N         53.69090       51.43417       98.79525
C         54.14214       52.69961       98.24794
C         53.85730       52.78724       96.76685
O         54.20427       53.79897       96.17371
H         52.67333       51.26022       98.82792
H         55.23830       52.82425       98.37403
H         53.64242       53.52898       98.79350
N         53.26794       51.75818       96.08645
C         53.05088       51.77552       94.64370
C         52.10026       52.89335       94.24630
O         51.55164       53.55707       95.11588
C         52.50089       50.40586       94.18443
C         53.44725       49.28378       94.54900
N         53.07141       48.31892       95.42175
O         54.56751       49.25515       94.06196
H         52.99295       50.90810       96.59712
H         54.03109       51.95206       94.14763
H         52.34421       50.38763       93.08547
H         51.51845       50.24145       94.67639
H         52.13790       48.33636       95.85606
H         53.72029       47.55984       95.67832
N         51.87750       53.16968       92.92964
C         51.02098       54.25732       92.48619
C         49.88313       53.71696       91.66613
O         50.13180       53.14015       90.61752
H         52.34994       52.60134       92.21052
H         51.61380       54.96805       91.87228
H         50.61935       54.82949       93.34870
N         48.59924       53.85050       92.10641
C         47.44409       53.32740       91.38160
C         46.82576       52.13418       92.10288
O         45.90005       51.54728       91.55552
C         46.41817       54.45655       91.10921
C         45.77491       55.02303       92.38537
O         47.05673       55.49015       90.40445
H         48.43951       54.30841       93.01523
H         47.77037       52.93936       90.39194
H         45.60903       54.02450       90.47507
H         46.34316       56.05597       90.00863
H         45.23676       54.22531       92.93360
H         46.52777       55.48527       93.05541
H         45.03358       55.80449       92.11576
N         47.29905       51.69228       93.30570
C         46.81677       50.49225       93.98741
C         47.97127       49.51720       94.16413
O         49.09825       49.88033       93.84668
C         46.16894       50.86335       95.36004
C         47.18424       51.53442       96.33129
C         44.93746       51.75519       95.12483
C         46.60990       51.84074       97.71539
H         48.06917       52.20206       93.76049
H         46.04886       49.97845       93.36769
H         45.80921       49.92252       95.83130
H         47.56470       52.48781       95.90897
H         48.04739       50.85067       96.47984
H         45.23950       52.73423       94.70237
H         44.23307       51.26035       94.42331
H         44.38246       51.93396       96.06720
H         45.80116       52.59688       97.66065
H         46.22144       50.91571       98.18955
H         47.41231       52.26299       98.35529
N         47.77792       48.26509       94.67559
C         48.89171       47.37031       94.97720
C         48.86305       46.12096       94.10819
O         49.04040       45.03059       94.62613
C         48.85450       47.05524       96.49355
C         50.05074       46.31279       97.02960
O         50.09615       45.99060       98.33485
O         51.00024       46.03428       96.31438
H         46.81937       47.95175       94.89624
H         49.85340       47.87923       94.75185
H         47.93115       46.47798       96.71911
H         48.80298       48.01539       97.04885
N         48.70412       46.21012       92.75675
C         48.80293       45.05213       91.86699
C         47.80234       43.95697       92.23561
O         46.60992       44.21778       92.17747
C         48.63424       45.49484       90.39309
C         48.78789       44.34552       89.41840
C         49.97736       44.19173       88.68659
C         47.74420       43.41952       89.22418
C         50.12693       43.12166       87.79828
C         47.89531       42.35661       88.33117
C         49.08689       42.20569       87.62035
H         48.54534       47.14298       92.34506
H         49.83797       44.66759       91.95192
H         49.42830       46.24955       90.19869
H         47.65867       45.99972       90.21830
H         50.79559       44.88883       88.81549
H         46.80742       43.51836       89.75391
H         51.05000       43.00282       87.24672
H         47.08578       41.65198       88.18888
H         49.20335       41.37912       86.93174
N         48.20724       42.68850       92.58089
C         47.30109       41.57002       92.82334
C         46.62915       41.60451       94.19467
O         45.89186       40.67611       94.49467
C         48.21527       40.34983       92.65464
C         49.51959       40.85375       93.22731
C         49.59253       42.25596       92.63322
H         46.50996       41.50781       92.04338
H         47.83064       39.39885       93.08105
H         48.38807       40.19298       91.56397
H         49.38574       40.94042       94.32922
H         50.41275       40.22529       93.02444
H         50.22842       42.88743       93.29003
H         49.99328       42.24322       91.59478
N         46.79277       42.64905       95.05392
C         46.09708       42.78630       96.32686
C         45.07733       43.92012       96.25949
O         44.38470       44.13035       97.24552
C         47.11610       43.05437       97.45650
C         48.07963       41.87869       97.66922
C         49.06414       42.18207       98.76317
O         49.85119       43.10690       98.64290
O         49.09212       41.42729       99.87811
H         47.39530       43.42504       94.78030
H         45.52426       41.86373       96.56707
H         46.57159       43.22681       98.41156
H         47.69204       43.97564       97.21482
H         48.64355       41.66181       96.73761
H         47.49051       40.97772       97.94680
N         44.90490       44.67425       95.13206
C         43.92120       45.72775       95.00464
H         43.30923       45.85162       95.92087
H         44.43668       46.68575       94.78368
H         43.24321       45.48604       94.15829
H         45.48043       44.50790       94.30129
Ca        52.09526       45.35529       99.16298
O         53.72430       43.13609       98.06331
H         53.45351       42.19475       97.92188
H         53.34070       43.62435       97.29167
O         51.59254       44.93915      102.96800
H         50.73515       45.13824      103.42140
H         52.28273       45.32113      103.56616
O         52.31100       42.36573      101.04727
H         51.92395       41.78685      101.75134
H         53.28978       42.30064      101.18289
O         48.76019       44.62195      101.41348
H         48.14575       44.89970      102.13854
H         48.16354       44.35933      100.66878
O         50.47136       47.05074      101.17458
H         50.25432       47.62154      100.39593
H         49.93898       47.42907      101.91766

Ca 1.0



