%chk=apoCaM-CA-Ng.loop1.water3.frame468.chk
%nprocshared=20
%mem=10GB
%nosave
#b3lyp/svp scf=(tight,noincore,xqc) Test 
#IOP(5/87=12) Density=Current Pop=(MK,readradii) iop(6/33=2) iop(6/42=6)

apoCaM-CA-Ng.loop1.water3.frame468 

   0  1 
C         45.57183       37.38577       71.56480
C         44.17043       37.33276       71.03098
O         43.38552       36.50310       71.46773
H         46.29097       37.21626       70.73548
H         45.76380       38.38591       72.00847
H         45.73193       36.61090       72.34341
N         43.78740       38.21573       70.07045
C         42.44460       38.25608       69.49783
C         42.15273       37.06912       68.57983
O         41.08226       37.07246       67.99796
C         42.25399       39.55156       68.66264
C         42.34744       40.81112       69.48563
O         41.38476       41.55799       69.56514
O         43.49142       41.14373       70.11267
H         44.48275       38.91159       69.76034
H         41.69138       38.28162       70.31723
H         41.24009       39.53720       68.20133
H         43.00029       39.58984       67.83913
N         43.03287       36.05361       68.33972
C         42.81513       35.06834       67.28248
C         42.71863       33.64474       67.78537
O         43.56947       33.25488       68.57322
C         43.98678       35.14041       66.29061
C         43.94781       36.43071       65.47056
C         45.10179       36.45641       64.46818
C         44.97813       37.65744       63.52733
N         46.09323       37.69115       62.58343
H         43.92849       36.01014       68.84391
H         41.89767       35.29865       66.73322
H         43.91417       34.29512       65.57438
H         44.95307       35.03612       66.83322
H         44.00508       37.32148       66.13338
H         42.98362       36.45910       64.91615
H         45.08337       35.52802       63.85491
H         46.06479       36.49924       65.02312
H         44.96279       38.60065       64.11661
H         44.02149       37.57852       62.96237
H         45.96328       38.49653       61.93010
H         46.99355       37.81354       63.10144
H         46.12344       36.80505       62.02802
N         41.81756       32.73284       67.28717
C         40.74220       32.95378       66.30233
C         41.23277       33.62089       65.01495
O         40.80463       34.72355       64.70600
C         39.52309       33.64842       66.94423
C         38.94278       32.81991       68.05621
O         37.95425       33.21497       68.65381
O         39.53774       31.67042       68.43585
H         41.92707       31.75957       67.61361
H         40.33795       31.96427       66.00195
H         38.72614       33.76052       66.18296
H         39.79006       34.65038       67.33811
N         42.11846       33.01538       64.17914
C         42.53800       31.64459       64.38662
C         43.46971       31.11371       63.32037
O         43.93988       31.87288       62.48618
H         42.42798       33.53245       63.34226
H         41.61279       31.03302       64.34632
H         43.03548       31.52884       65.37108
N         43.76020       29.78247       63.24028
C         43.20416       28.77035       64.13680
C         42.16787       27.93645       63.40799
O         42.00181       28.08302       62.20331
C         44.32821       27.94013       64.78269
C         45.19208       27.23205       63.77589
O         44.71498       26.39037       63.03194
O         46.50497       27.52175       63.69761
H         44.35480       29.46527       62.45843
H         42.65555       29.23808       64.97636
H         43.89714       27.19246       65.48214
H         44.96482       28.63065       65.37857
N         41.36659       27.09103       64.11235
C         40.27033       26.34699       63.51802
C         39.26165       27.28223       62.89252
O         38.95863       27.13120       61.71772
H         41.50565       27.00362       65.13098
H         39.75815       25.76718       64.31620
H         40.66007       25.62939       62.76361
N         38.72404       28.29617       63.62750
C         37.75597       29.25417       63.10682
C         38.41595       30.62485       63.06262
O         38.95840       31.05480       64.06921
C         36.47509       29.21131       63.97711
C         35.31091       29.96896       63.33638
O         36.71627       29.73236       65.26040
H         39.03774       28.41000       64.60400
H         37.45255       28.96888       62.07521
H         36.12788       28.15280       64.04731
H         37.01148       28.97905       65.83438
H         35.07602       29.54283       62.33740
H         34.40587       29.88382       63.97437
H         35.54758       31.03581       63.21532
N         38.41606       31.36248       61.91565
C         39.14469       32.62511       61.76128
C         38.24212       33.84474       61.93253
O         38.66620       34.94375       61.60545
C         39.95102       32.63786       60.42060
C         39.03389       32.63987       59.16524
C         40.94602       31.46269       60.39860
C         39.79883       32.79861       57.84770
H         37.86424       31.01461       61.11939
H         39.89800       32.73167       62.57018
H         40.54770       33.57780       60.40504
H         38.33053       33.49659       59.23521
H         38.43811       31.70644       59.10435
H         41.62249       31.51938       59.52247
H         41.58550       31.49524       61.30152
H         40.41345       30.48832       60.37759
H         40.46844       31.93530       57.65886
H         39.07636       32.84717       57.00551
H         40.39569       33.73506       57.85554
N         37.01166       33.73599       62.51020
C         36.08877       34.85489       62.70055
C         36.60623       35.97236       63.60998
O         35.95401       37.00542       63.64326
C         34.72722       34.34580       63.25248
C         34.84409       33.75996       64.67587
O         34.21130       33.37448       62.37862
H         36.70120       32.80516       62.79627
H         35.91106       35.29569       61.69406
H         34.02600       35.21195       63.28573
H         33.25246       33.25777       62.60835
H         35.53478       32.89369       64.71395
H         35.21171       34.52570       65.39035
H         33.84766       33.41916       65.02654
N         37.72510       35.84257       64.38813
C         38.24614       36.87991       65.28804
C         37.29419       37.19229       66.44551
O         36.10739       37.38882       66.23170
C         38.66172       38.16628       64.53266
C         39.71628       37.86294       63.46111
O         39.20843       39.07653       65.45346
H         38.24923       34.96062       64.34620
H         39.18435       36.49471       65.74425
H         37.76602       38.61921       64.05307
H         39.17299       39.97464       65.03185
H         40.01131       38.80000       62.94413
H         40.62295       37.41616       63.92361
H         39.31552       37.16406       62.70185
N         37.79505       37.34327       67.70752
C         37.00277       37.69645       68.87805
C         37.26603       36.70002       70.00034
O         36.33428       36.01918       70.40436
C         37.33173       39.13599       69.33720
C         36.96399       40.17836       68.26514
C         37.23538       41.60928       68.75687
C         36.79791       42.69088       67.75063
N         37.56333       42.64668       66.50306
H         38.80411       37.25807       67.84004
H         35.91716       37.67032       68.63265
H         38.41257       39.23034       69.58101
H         36.74388       39.35559       70.25589
H         35.88294       40.08175       68.02312
H         37.55604       39.98053       67.34983
H         38.31537       41.73399       68.99021
H         36.65676       41.77362       69.69216
H         36.95184       43.68558       68.22527
H         35.71235       42.58558       67.52980
H         37.38142       41.75881       65.98458
H         37.26359       43.44328       65.89524
H         38.58513       42.74408       66.70341
N         38.50960       36.57119       70.55980
C         38.82518       35.63743       71.64051
C         39.27734       36.39751       72.86688
O         40.27590       37.10276       72.80996
C         39.90552       34.64744       71.16259
C         40.42165       33.61929       72.19319
C         39.36432       32.85115       72.95708
O         38.80869       33.37155       73.90823
O         39.08566       31.56485       72.66994
H         39.27604       37.16455       70.20786
H         37.92813       35.03798       71.90534
H         40.78840       35.20451       70.77470
H         39.47891       34.09102       70.31595
H         41.07977       34.11613       72.93860
H         41.06354       32.90531       71.63128
N         38.58335       36.27505       74.03225
C         38.99301       36.92679       75.25425
H         38.98901       38.02771       75.11874
H         38.28979       36.66135       76.07298
H         40.01023       36.58417       75.54064
H         37.73928       35.68339       74.06390
Ca        39.18565       30.98958       70.52017
O         37.83567       27.19353       70.08641
H         37.49908       26.86018       69.21687
H         37.38275       26.62782       70.76126
O         36.40708       29.88181       69.15036
H         35.61313       29.61835       69.68041
H         36.05782       30.51999       68.47874
O         37.01848       29.36149       72.44524
H         37.52124       28.58656       72.80174
H         36.68877       29.83499       73.24994

Ca 1.0



