%chk=apoCaM-CA-Ng.loop2.water4.frame359.chk
%nprocshared=20
%mem=10GB
%nosave
#b3lyp/svp scf=(tight,noincore,xqc) Test 
#IOP(5/87=12) Density=Current Pop=(MK,readradii) iop(6/33=2) iop(6/42=6)

apoCaM-CA-Ng.loop2.water4.frame359 

   -2  1 
C         62.33240       97.49562       26.08204
C         61.89540       98.24340       24.85476
O         61.54666       99.40921       24.97192
H         63.20227       98.01287       26.53923
H         61.50126       97.46329       26.81698
H         62.63173       96.45380       25.84063
N         61.89693       97.63314       23.63592
C         61.50636       98.29822       22.39826
C         60.32659       97.58389       21.76413
O         60.41076       96.39149       21.50591
C         62.69557       98.40449       21.41609
C         63.29467       97.09291       20.98207
O         63.91134       96.29473       21.87299
O         63.26878       96.76953       19.80528
H         62.19298       96.64764       23.58452
H         61.20706       99.34971       22.60126
H         63.50021       99.01305       21.88150
H         62.33930       98.95328       20.51533
N         59.20023       98.27871       21.43688
C         58.06363       97.66469       20.76343
C         57.32241       96.72375       21.68996
O         56.81568       97.17260       22.71017
C         57.09376       98.74336       20.26459
H         59.18000       99.29506       21.61427
H         58.43065       97.12576       19.86133
H         56.24451       98.27385       19.72280
H         56.69421       99.34248       21.11106
H         57.61938       99.42659       19.56372
N         57.19226       95.40168       21.38248
C         56.39869       94.48193       22.19772
C         54.91961       94.84903       22.13982
O         54.55668       95.76481       21.41332
C         56.60392       93.02697       21.72302
C         58.03798       92.61050       21.88364
O         58.60190       92.67278       23.10315
O         58.68460       92.21321       20.92807
H         57.66555       95.04335       20.53853
H         56.73935       94.55368       23.25544
H         56.28149       92.91729       20.66404
H         55.99562       92.33665       22.34417
N         54.00483       94.17066       22.89334
C         52.58215       94.48386       22.88337
C         52.05242       94.89935       24.24060
O         50.87461       95.22320       24.30854
H         54.32386       93.39637       23.49435
H         52.01993       93.58918       22.53983
H         52.35985       95.31009       22.17554
N         52.82865       94.89948       25.36574
C         52.33326       95.28733       26.68145
C         53.18594       96.40709       27.25701
O         54.16628       96.81369       26.64620
C         52.34955       94.07107       27.64221
C         51.38661       92.97801       27.23925
N         51.57059       92.24953       26.11385
O         50.43064       92.73258       27.96068
H         53.81033       94.59240       25.31328
H         51.28805       95.66475       26.62125
H         52.03999       94.41119       28.65299
H         53.37582       93.65468       27.73475
H         52.38298       92.40458       25.50246
H         50.90329       91.50521       25.86269
N         52.85954       96.93868       28.46590
C         53.63450       97.95125       29.15734
C         54.12447       97.40977       30.48036
O         53.97883       96.22242       30.74516
H         52.01418       96.59836       28.94915
H         52.96522       98.81865       29.34386
H         54.50602       98.30583       28.56604
N         54.67316       98.25207       31.39662
C         55.05645       97.79798       32.73130
C         56.30397       96.91566       32.73479
O         56.50774       96.22441       33.72283
C         55.17317       98.97578       33.74248
C         56.18321      100.07231       33.35968
O         53.91080       99.55453       33.96617
H         54.71320       99.25269       31.15752
H         54.22272       97.16436       33.11311
H         55.50149       98.54514       34.71384
H         53.61480       99.98502       33.12255
H         55.88500      100.60758       32.43657
H         56.24183      100.82087       34.17756
H         57.18964       99.66213       33.19918
N         57.20547       96.91763       31.70742
C         58.42178       96.09292       31.69058
C         58.43580       95.25202       30.41157
O         57.60416       95.46437       29.53959
C         59.66332       97.04434       31.85090
C         59.61181       97.72331       33.24807
C         61.02966       96.34921       31.68456
C         60.55035       98.92310       33.39404
H         57.05622       97.56394       30.91820
H         58.41841       95.37547       32.54129
H         59.58237       97.82344       31.06062
H         59.81448       96.97656       34.04695
H         58.60439       98.11421       33.43514
H         61.15394       95.54219       32.43906
H         61.14980       95.94226       30.66306
H         61.86607       97.06470       31.80039
H         61.61582       98.63631       33.31113
H         60.31032       99.68527       32.62165
H         60.40193       99.38341       34.39393
N         59.34470       94.24627       30.25401
C         59.45555       93.41608       29.05949
C         59.21842       91.93817       29.40791
O         59.45465       91.07334       28.57655
C         60.85239       93.67653       28.45179
C         61.03814       93.15769       27.05062
O         60.13407       92.59646       26.45294
O         62.21424       93.35960       26.42911
H         60.00381       94.04429       31.01989
H         58.70508       93.72200       28.29810
H         61.63636       93.26203       29.12213
H         61.00351       94.77615       28.37979
N         58.68212       91.58557       30.61209
C         58.38954       90.21292       31.01708
C         59.68709       89.49868       31.37613
O         60.43030       90.05566       32.17391
C         57.47951       90.23023       32.27126
C         56.23856       91.07822       32.06627
C         56.05609       92.24022       32.83988
C         55.27081       90.74202       31.10225
C         54.93588       93.05226       32.64892
C         54.14660       91.55768       30.91786
C         53.98142       92.71212       31.68886
H         58.41069       92.33273       31.26491
H         57.81738       89.69986       30.21482
H         58.06253       90.64717       33.12192
H         57.18470       89.19331       32.54420
H         56.78847       92.52664       33.58442
H         55.38503       89.85424       30.49354
H         54.81069       93.94730       33.24453
H         53.40315       91.29838       30.17500
H         53.11489       93.34444       31.54306
N         60.03649       88.26414       30.89679
C         61.24264       87.56755       31.32663
C         62.49554       88.06747       30.61323
O         63.58362       87.63515       30.96534
C         60.92841       86.10804       30.99020
C         60.13329       86.25258       29.70482
C         59.22277       87.44085       30.02568
H         61.38975       87.65999       32.42595
H         61.80719       85.42929       30.95036
H         60.22206       85.71936       31.75970
H         60.84991       86.55948       28.90953
H         59.59811       85.34126       29.36340
H         58.93111       87.95085       29.08241
H         58.31955       87.12393       30.59210
N         62.41557       88.94962       29.58108
C         63.57028       89.48079       28.86247
C         64.35088       90.43691       29.74224
O         65.57194       90.43232       29.67296
C         63.08564       90.20940       27.59472
C         62.45592       89.21181       26.60193
C         61.67998       89.92450       25.53965
O         62.25938       90.80371       24.70249
O         60.47655       89.73435       25.45517
H         61.48243       89.25185       29.26853
H         64.23782       88.65734       28.52026
H         63.92513       90.73018       27.08195
H         62.34229       90.96979       27.90981
H         61.74040       88.54655       27.13059
H         63.24329       88.56821       26.15358
N         63.70829       91.28603       30.59601
C         64.39510       92.23894       31.44513
H         65.49265       92.24446       31.27707
H         64.00561       93.25730       31.23706
H         64.20394       91.99289       32.51098
H         62.68047       91.25126       30.66782
Ca        60.69134       92.00345       23.61615
O         62.05698       90.42834       21.36466
H         61.64485       89.52914       21.32438
H         62.89548       90.29572       21.87438
O         63.58267       93.75233       23.83376
H         64.09151       93.83366       22.98879
H         64.05292       94.35228       24.46570
O         60.08797       95.23526       24.71184
H         59.16868       95.05730       25.03234
H         60.07940       94.95454       23.76292
O         61.84825       93.51993       21.19568
H         62.23564       94.35848       20.84312
H         60.87695       93.70066       21.24535

Ca 1.0



