%chk=apoCaM-CA-Ng.loop4.water7.frame1055.chk
%nprocshared=20
%mem=10GB
%nosave
#b3lyp/svp scf=(tight,noincore,xqc) Test 
#IOP(5/87=12) Density=Current Pop=(MK,readradii) iop(6/33=2) iop(6/42=6)

apoCaM-CA-Ng.loop4.water7.frame1055 

   -3  1 
C         28.41292       97.22757       52.98571
C         29.43356       97.18501       51.88314
O         30.18774       96.22448       51.83035
H         27.39178       97.24894       52.55013
H         28.49740       96.32521       53.62903
H         28.57307       98.12343       53.61999
N         29.53970       98.16101       50.93550
C         28.71516       99.36507       50.86508
C         27.82816       99.37644       49.62303
O         27.03405      100.29752       49.49000
C         29.62480      100.60808       50.86396
C         30.49996      100.65874       52.08445
O         31.71524      100.64373       51.96879
O         29.94861      100.72601       53.31103
H         30.25770       98.03614       50.21069
H         28.03242       99.42351       51.73738
H         29.00784      101.53197       50.83546
H         30.26272      100.59040       49.95126
N         27.88124       98.38412       48.68531
C         26.97774       98.31888       47.53373
C         27.11706       99.49030       46.56120
O         26.25354       99.60363       45.69930
C         27.13370       96.96587       46.76519
C         28.55471       96.82098       46.14637
C         26.76748       95.78365       47.68622
C         28.76044       95.53622       45.34549
H         28.54293       97.61434       48.82625
H         25.94050       98.36146       47.93652
H         26.39282       96.95839       45.93418
H         29.33314       96.84989       46.93240
H         28.73600       97.67326       45.45670
H         26.75084       94.83001       47.12187
H         27.47910       95.67565       48.53001
H         25.74715       95.92895       48.10054
H         28.01238       95.46227       44.52919
H         29.77853       95.54309       44.90105
H         28.69191       94.64322       45.99981
N         28.14284      100.39230       46.61808
C         28.26424      101.52363       45.68762
C         29.39503      102.47110       46.10273
O         30.17641      102.13387       46.98536
C         28.50470      100.99162       44.24379
C         28.45603      102.05360       43.18199
O         27.32894      102.76664       42.99343
O         29.42329      102.25462       42.46510
H         28.84570      100.27189       47.36005
H         27.31173      102.09757       45.74163
H         27.72949      100.25571       43.95883
H         29.48459      100.46521       44.21638
N         29.54081      103.69796       45.52039
C         30.62296      104.60147       45.88239
C         31.99277      104.08378       45.47000
O         32.98022      104.68049       45.87257
H         28.85105      104.02370       44.82735
H         30.59215      104.75817       46.98253
H         30.47416      105.59028       45.39591
N         32.12918      103.01410       44.63279
C         33.40542      102.46695       44.18283
C         33.43785      100.96883       44.45582
O         32.41666      100.33203       44.24278
C         33.54285      102.68369       42.66432
C         33.56740      104.14410       42.31297
O         32.72152      104.61092       41.56731
O         34.53254      104.94258       42.80841
H         31.28395      102.57642       44.24447
H         34.26051      102.97356       44.67853
H         32.70229      102.18185       42.13440
H         34.49276      102.23119       42.30732
N         34.57257      100.28544       44.79514
C         35.88359      100.90511       44.89595
C         36.99590       99.87239       44.77373
O         36.95545       99.12887       43.80362
H         34.50435       99.25830       44.88006
H         35.92822      101.54069       45.79988
H         36.02780      101.55695       44.01025
N         38.06030       99.75981       45.62900
C         38.29936      100.55804       46.82510
C         37.26763      100.19858       47.86897
O         36.48685      101.03027       48.30961
C         38.44568      102.07249       46.48437
C         39.87917      102.58899       46.69047
C         40.30509      102.51279       48.13656
N         39.63879      103.20229       49.09227
O         41.26487      101.82308       48.44674
H         38.76754       99.04028       45.40943
H         39.26031      100.21790       47.27251
H         37.74991      102.69807       47.07910
H         38.19086      102.24952       45.41796
H         39.93708      103.64858       46.36259
H         40.57172      101.99355       46.05435
H         38.83247      103.79642       48.85130
H         39.93239      103.14587       50.07854
N         37.22780       98.90628       48.29358
C         36.21477       98.36235       49.18355
C         35.43214       97.30361       48.41380
O         35.73964       97.05303       47.25482
C         36.85254       97.83928       50.50860
C         37.49190       98.99361       51.29651
C         37.89409       96.73197       50.29536
H         37.92916       98.24974       47.91539
H         35.48002       99.14880       49.46418
H         36.04194       97.42203       51.14449
H         36.73674       99.77955       51.50972
H         37.88577       98.62551       52.26880
H         38.33085       99.44849       50.72737
H         37.43999       95.88424       49.75708
H         38.76941       97.09740       49.71968
H         38.26103       96.35861       51.27634
N         34.37632       96.66526       48.98476
C         33.53568       95.70877       48.26818
C         33.64253       94.32580       48.88738
O         32.74917       93.51306       48.69074
C         32.08399       96.22491       48.29769
C         31.96454       97.57064       47.62906
N         32.23085       97.71133       46.31334
O         31.61567       98.54497       48.27661
H         34.13553       96.87689       49.96491
H         33.83782       95.59963       47.20352
H         31.75270       96.29727       49.35637
H         31.40798       95.51757       47.77020
H         32.51979       96.91022       45.73481
H         32.13241       98.63216       45.87366
N         34.76032       93.96073       49.57639
C         34.93158       92.67052       50.22685
C         35.32831       92.90506       51.67124
O         36.19408       93.73647       51.91415
C         35.95528       91.77321       49.49722
C         37.40123       92.20165       49.58856
C         38.29168       91.43815       50.36396
C         37.88424       93.33005       48.90704
C         39.63340       91.80335       50.47082
C         39.23221       93.69345       49.01308
C         40.10988       92.93123       49.79893
O         41.40993       93.26828       49.91354
H         35.53496       94.63116       49.64905
H         33.98170       92.09125       50.19056
H         35.66612       91.64199       48.43152
H         35.85863       90.77193       49.97264
H         37.94590       90.56020       50.89590
H         37.22691       93.92434       48.28650
H         40.30192       91.20611       51.07785
H         39.59349       94.56609       48.48376
H         41.78383       94.03966       49.46525
N         34.77052       92.18686       52.68333
C         35.08700       92.43664       54.08437
C         33.78104       92.55084       54.84391
O         33.52624       91.76735       55.74878
C         36.02480       91.32483       54.59982
C         36.58278       91.63900       55.99960
C         37.55776       90.58911       56.44466
O         38.57470       90.38053       55.80194
O         37.32541       89.88663       57.56965
H         34.11540       91.42304       52.45345
H         35.63818       93.39683       54.19133
H         36.88856       91.26421       53.90004
H         35.50342       90.34198       54.58907
H         35.76176       91.70273       56.74187
H         37.10757       92.61891       55.97891
N         32.85843       93.47392       54.45142
C         31.51973       93.54308       55.01978
C         30.50439       92.98378       54.02130
O         29.33581       92.88000       54.36518
C         31.22118       95.00620       55.42658
C         29.97577       95.18853       56.31350
C         30.16727       94.54100       57.65601
O         31.17576       94.94258       58.45375
O         29.41161       93.66022       58.03343
H         33.08478       94.09542       53.65832
H         31.46882       92.90220       55.92625
H         31.11544       95.61713       54.50376
H         32.08919       95.41031       55.99327
H         29.06821       94.79634       55.81314
H         29.81344       96.27366       56.48536
N         30.87756       92.56295       52.77402
C         29.93935       91.98843       51.83721
H         29.13565       92.71783       51.60624
H         30.46540       91.72569       50.89347
H         29.50030       91.06229       52.26460
H         31.85339       92.63366       52.45641
Ca        30.22570       94.10574       61.17818
O         28.75411       96.55564       60.00369
H         27.83047       96.90359       59.92694
H         29.31114       97.21229       59.51545
O         32.00734       92.80964       63.29374
H         31.25734       92.17216       63.40208
H         32.68877       92.30637       62.78127
O         29.31474       95.96697       63.39347
H         30.08345       96.52518       63.11470
H         28.57779       96.24289       62.79258
O         29.76560       91.15481       60.75071
H         29.85549       90.21007       61.03199
H         28.88003       91.20089       60.31028
O         32.77419       92.85402       59.87167
H         33.27367       92.00790       59.75298
H         33.47543       93.54578       59.97164
O         27.24704       93.50841       60.68574
H         27.15471       94.22391       60.00781
H         26.88278       93.90428       61.51690
O         32.67924       95.87060       61.89803
H         33.46355       95.78834       61.29968
H         32.20945       96.68238       61.58059

Ca 1.0



