%chk=apoCaM-CA-Ng.loop2.water3.frame645.chk
%nprocshared=20
%mem=10GB
%nosave
#b3lyp/svp scf=(tight,noincore,xqc) Test 
#IOP(5/87=12) Density=Current Pop=(MK,readradii) iop(6/33=2) iop(6/42=6)

apoCaM-CA-Ng.loop2.water3.frame645 

   -2  1 
C        -28.82398       38.06925       31.29787
C        -30.24850       38.49027       31.49142
O        -31.13828       37.67270       31.30117
H        -28.26425       38.19837       32.24771
H        -28.76958       37.00048       30.99725
H        -28.35634       38.68947       30.50613
N        -30.53763       39.76041       31.89496
C        -31.89554       40.22422       32.13801
C        -32.04384       40.50106       33.61571
O        -31.44562       41.44327       34.11753
C        -32.19503       41.46454       31.27212
C        -33.59932       41.97990       31.45296
O        -34.01003       42.43961       32.65100
O        -34.36681       42.01006       30.50453
H        -29.75812       40.41358       32.07169
H        -32.62387       39.43354       31.85291
H        -32.04409       41.18831       30.20513
H        -31.48134       42.28131       31.51690
N        -32.79676       39.66383       34.38206
C        -32.98740       39.82591       35.81659
C        -32.24239       38.70979       36.55635
O        -31.77890       37.79121       35.89342
C        -34.50464       39.80006       36.06986
H        -33.22922       38.84019       33.93396
H        -32.56950       40.79962       36.13982
H        -34.79951       39.96048       37.11559
H        -34.99388       40.60037       35.47546
H        -34.92462       38.82181       35.74809
N        -32.04012       38.68232       37.91034
C        -32.46146       39.71404       38.85370
C        -31.74221       41.03798       38.64769
O        -30.70145       41.08356       38.00603
C        -32.28047       39.23899       40.31728
C        -30.85821       38.95445       40.74384
O        -30.62420       38.52976       41.99962
O        -29.91784       39.09779       39.97847
H        -31.55491       37.85325       38.28894
H        -33.54229       39.87055       38.73803
H        -32.87235       38.30852       40.45702
H        -32.69589       40.00935       41.00217
N        -32.26946       42.16684       39.19399
C        -31.63149       43.47150       39.16693
C        -32.42265       44.45767       38.33570
O        -33.32670       44.03959       37.62550
H        -33.18061       42.10242       39.67460
H        -30.59564       43.43278       38.76803
H        -31.58638       43.80835       40.22119
N        -32.18112       45.80117       38.36127
C        -31.22673       46.47056       39.23834
C        -30.27924       47.33268       38.41882
O        -30.29026       48.54765       38.57227
C        -32.02689       47.31217       40.26261
C        -32.88654       46.43999       41.14687
N        -34.23602       46.54443       41.12779
O        -32.35531       45.63038       41.89217
H        -32.77580       46.40654       37.77208
H        -30.59978       45.75751       39.81087
H        -32.66176       48.04290       39.71369
H        -31.33404       47.88356       40.91814
H        -34.70805       47.21577       40.50515
H        -34.81412       45.94273       41.73352
N        -29.39925       46.76136       37.54375
C        -28.46011       47.54577       36.74799
C        -27.00809       47.31705       37.12467
O        -26.16949       48.02924       36.59053
H        -29.38811       45.73472       37.44564
H        -28.64384       48.63227       36.89159
H        -28.61368       47.32888       35.67018
N        -26.62553       46.38532       38.04645
C        -25.25521       46.25867       38.54425
C        -24.66108       44.90581       38.19183
O        -25.32970       44.09605       37.56410
C        -25.27237       46.44512       40.08597
C        -25.82380       47.81358       40.49088
O        -26.05228       45.43252       40.67471
H        -27.33256       45.75960       38.45833
H        -24.59211       47.03269       38.09896
H        -24.22825       46.38855       40.46795
H        -25.68134       45.26157       41.57945
H        -25.20514       48.62098       40.04575
H        -26.87627       47.93269       40.15716
H        -25.79422       47.91285       41.59669
N        -23.40846       44.57835       38.62768
C        -22.84740       43.24356       38.50282
C        -22.93496       42.61121       39.87594
O        -22.24715       43.05067       40.78790
C        -21.38304       43.28524       37.96389
C        -20.72339       41.87643       38.00165
C        -21.36234       43.87415       36.54114
C        -19.23785       41.87849       37.62955
H        -22.87172       45.26510       39.17766
H        -23.45574       42.63303       37.80292
H        -20.79171       43.95282       38.63031
H        -21.26990       41.17435       37.33935
H        -20.77369       41.47623       39.03603
H        -20.32478       43.99234       36.16888
H        -21.92181       43.21733       35.84049
H        -21.82265       44.88385       36.52884
H        -18.67423       42.55907       38.30365
H        -18.82759       40.85269       37.74675
H        -19.07722       42.18538       36.57725
N        -23.79021       41.57178       40.08506
C        -23.90898       40.84864       41.33975
C        -23.45730       39.39917       41.18194
O        -23.39103       38.70718       42.18836
C        -25.33958       40.98803       41.89478
C        -26.39284       40.43163       40.97574
O        -27.25316       41.16537       40.51479
O        -26.40441       39.12045       40.67136
H        -24.38858       41.26412       39.31073
H        -23.22548       41.29439       42.09551
H        -25.53666       42.07140       42.06026
H        -25.41400       40.47728       42.87814
N        -23.05030       38.89119       39.97561
C        -22.25798       37.67644       39.87224
C        -22.42625       37.04309       38.49053
O        -21.45751       36.98815       37.74492
C        -20.80201       38.09131       40.20954
C        -19.75943       37.00942       40.07882
C        -18.62049       37.24262       39.28636
C        -19.88701       35.78372       40.75318
C        -17.62625       36.26949       39.17347
C        -18.89327       34.80676       40.62716
C        -17.76298       35.05098       39.84121
H        -23.04693       39.49754       39.14411
H        -22.57020       36.92374       40.62643
H        -20.78494       38.44860       41.26204
H        -20.52012       38.95484       39.56619
H        -18.49311       38.18442       38.76582
H        -20.75182       35.58117       41.37127
H        -16.74856       36.46364       38.57040
H        -18.99640       33.86119       41.14275
H        -16.99109       34.29811       39.75125
N        -23.61693       36.49602       38.07670
C        -23.76737       35.75511       36.82882
C        -23.50744       36.54408       35.55944
O        -23.45793       35.93047       34.50197
C        -25.22231       35.27701       36.85417
C        -25.46338       35.10808       38.33923
C        -24.80252       36.36677       38.89892
H        -23.06250       34.89437       36.88746
H        -25.88695       36.10745       36.52024
H        -25.42722       34.38416       36.22477
H        -26.52591       34.97358       38.63241
H        -24.88169       34.21963       38.67795
H        -25.44532       37.25880       38.73282
H        -24.60096       36.22014       39.97936
N        -23.36154       37.90045       35.56919
C        -23.05048       38.65762       34.36426
C        -21.65806       38.28029       33.90674
O        -21.50346       37.80700       32.78936
C        -23.11599       40.18579       34.59786
C        -24.53838       40.74774       34.77822
C        -25.23272       40.28636       36.02031
O        -26.42502       39.66974       35.95095
O        -24.74139       40.51237       37.10916
H        -23.46333       38.40608       36.45762
H        -23.78603       38.41676       33.56291
H        -22.71576       40.68279       33.68663
H        -22.47151       40.48303       35.45090
H        -25.15511       40.49269       33.88987
H        -24.46332       41.85542       34.83717
N        -20.59224       38.45340       34.73655
C        -19.24669       38.09825       34.34732
H        -18.54452       38.31333       35.18080
H        -19.19486       37.01466       34.10873
H        -18.94102       38.69115       33.45958
H        -20.73924       38.84218       35.68050
Ca       -27.52882       39.28654       37.88464
O        -29.32134       39.34546       35.44094
H        -29.48187       40.31822       35.51888
H        -28.91009       39.23098       34.54856
O        -28.03725       42.35398       36.46161
H        -27.57383       42.19915       35.60029
H        -27.64940       43.19685       36.80410
O        -28.50571       36.60350       37.29557
H        -29.16946       36.79909       36.58812
H        -29.02021       36.64765       38.14027

Ca 1.0



