%chk=apoCaM-CA-Ng.loop1.water4.frame111.chk
%nprocshared=20
%mem=10GB
%nosave
#b3lyp/svp scf=(tight,noincore,xqc) Test 
#IOP(5/87=12) Density=Current Pop=(MK,readradii) iop(6/33=2) iop(6/42=6)

apoCaM-CA-Ng.loop1.water4.frame111 

   0  1 
C         53.87741       53.24851      109.32915
C         53.19855       51.91160      109.35611
O         52.62614       51.54535      110.37321
H         54.95899       53.10590      109.11774
H         53.43301       53.88067      108.53263
H         53.77239       53.76662      110.30564
N         53.23605       51.11553      108.25241
C         52.62590       49.78879      108.18824
C         53.30035       48.74302      109.08783
O         52.88516       47.59720      109.03381
C         52.52768       49.31099      106.71704
C         53.83614       49.11502      105.99859
O         53.82643       48.75555      104.83215
O         55.01473       49.33725      106.60999
H         53.68777       51.49638      107.40624
H         51.57314       49.87648      108.52113
H         51.93244       50.06189      106.15097
H         51.96355       48.35445      106.68273
N         54.29577       49.04610      109.97141
C         54.90322       48.06825      110.86816
C         54.48324       48.35059      112.30971
O         54.57676       49.50536      112.70232
C         56.43584       48.11211      110.72454
C         56.87756       47.63604      109.33397
C         58.39911       47.48145      109.25694
C         58.82242       46.93268      107.88810
N         60.26641       46.70821      107.83916
H         54.63660       50.01043      110.05767
H         54.60139       47.05417      110.59502
H         56.87690       47.42531      111.47211
H         56.82701       49.13178      110.93372
H         56.52278       48.34741      108.55891
H         56.42296       46.64079      109.13910
H         58.72573       46.76529      110.04338
H         58.88998       48.46221      109.43940
H         58.52904       47.65161      107.09112
H         58.30214       45.96686      107.69808
H         60.77777       47.60569      108.00138
H         60.54353       46.00741      108.56507
H         60.52265       46.33415      106.89705
N         54.06010       47.39483      113.20920
C         54.00807       45.93976      113.02470
C         55.35773       45.43305      112.51993
O         55.41990       44.92418      111.41033
C         52.84177       45.48330      112.10707
C         51.45043       45.81155      112.55067
O         51.17639       46.42554      113.71444
O         50.52379       45.49897      111.81956
H         53.84038       47.72475      114.16218
H         53.80915       45.45710      114.00750
H         52.87391       44.37791      112.03077
H         52.94493       45.90542      111.09770
N         56.51962       45.55924      113.21736
C         56.63272       46.03046      114.59035
C         58.09054       46.23997      114.98175
O         58.94155       46.28563      114.10415
H         57.37272       45.24661      112.72835
H         56.16325       45.26187      115.23899
H         56.11441       46.99862      114.73581
N         58.50083       46.37849      116.27372
C         57.64961       46.19444      117.44398
C         57.67022       44.73476      117.87764
O         58.37374       43.93918      117.26675
C         58.11263       47.13652      118.58650
C         59.49835       46.86877      119.13892
O         59.97374       47.65318      120.12403
O         60.19141       45.95229      118.72459
H         59.51697       46.47200      116.42227
H         56.60211       46.46980      117.19589
H         57.39959       47.06328      119.43401
H         58.08185       48.18254      118.21278
N         56.93334       44.30840      118.94412
C         56.99859       42.93923      119.43501
C         56.45817       41.90277      118.46707
O         56.63191       40.72344      118.73876
H         56.35187       44.98421      119.46150
H         56.42987       42.85011      120.38553
H         58.06353       42.70761      119.65477
N         55.76248       42.25041      117.34737
C         55.24224       41.28201      116.38713
C         55.41621       41.86068      114.99374
O         54.94088       42.96329      114.75823
C         53.77918       40.93418      116.73616
C         53.22701       39.83093      115.83059
O         52.95254       42.06618      116.65314
H         55.53693       43.24401      117.19247
H         55.81462       40.33001      116.46324
H         53.75693       40.51971      117.77381
H         52.99850       42.52178      117.53438
H         53.86201       38.92092      115.90390
H         52.19838       39.56165      116.15117
H         53.19660       40.16521      114.77317
N         56.11785       41.19158      114.03154
C         56.50994       41.81840      112.76543
C         55.70409       41.29463      111.58238
O         56.26406       40.94993      110.55257
C         58.07046       41.80084      112.59351
C         58.73838       40.45544      112.15924
C         58.75157       42.34808      113.86544
C         58.50788       39.22891      113.04187
H         56.42639       40.23989      114.24819
H         56.23152       42.88593      112.81631
H         58.31019       42.51528      111.77424
H         59.83519       40.62900      112.10186
H         58.42499       40.17982      111.13413
H         58.57851       41.68344      114.73812
H         59.84822       42.43657      113.71318
H         58.35788       43.35445      114.11563
H         58.80979       39.41945      114.09204
H         57.45286       38.89664      112.98366
H         59.11568       38.38430      112.65422
N         54.34494       41.23264      111.66870
C         53.50150       40.69262      110.59988
C         53.21579       41.68652      109.46973
O         52.65895       41.26948      108.46422
C         52.16696       40.15166      111.18341
C         51.27412       41.24664      111.79236
O         52.43322       39.19207      112.17362
H         53.92054       41.47603      112.57340
H         54.03208       39.81646      110.16334
H         51.57653       39.67720      110.36548
H         52.79348       38.39117      111.71057
H         50.33168       40.79245      112.16314
H         51.75874       41.75630      112.64935
H         51.01056       42.01088      111.03491
N         53.50462       43.01567      109.59152
C         53.19010       44.06842      108.61548
C         51.67946       44.19259      108.36692
O         50.92893       43.32248      108.78316
C         53.97538       43.85623      107.28868
C         55.48429       43.68545      107.52035
O         53.75841       44.91600      106.39030
H         53.96222       43.32022      110.45310
H         53.53273       45.02715      109.05787
H         53.61249       42.92757      106.80043
H         54.14480       45.73854      106.79246
H         55.99534       43.52810      106.54671
H         55.91057       44.58817      108.00387
H         55.68924       42.80417      108.16305
N         51.16086       45.26040      107.68453
C         49.76254       45.33416      107.25467
C         48.95015       46.43893      107.92510
O         47.73551       46.39514      107.78149
C         49.73741       45.53313      105.72112
C         50.36121       44.36524      104.93385
C         49.43413       43.14289      104.88953
C         50.05464       42.00226      104.07280
N         49.10292       40.90328      103.91057
H         51.78952       46.02281      107.39941
H         49.23427       44.39585      107.52325
H         50.32282       46.45426      105.50046
H         48.70449       45.70286      105.34634
H         51.35772       44.10062      105.34803
H         50.51174       44.70267      103.88501
H         48.48120       43.45325      104.40674
H         49.21196       42.77269      105.91188
H         50.96943       41.63468      104.58956
H         50.34586       42.37356      103.06503
H         48.26699       41.23558      103.37564
H         49.55778       40.13083      103.37267
H         48.80140       40.54029      104.84363
N         49.50655       47.46381      108.63477
C         48.71140       48.49419      109.30428
C         48.74976       49.77369      108.48017
O         49.22907       50.80067      108.94318
C         49.23811       48.68499      110.74980
C         48.35784       49.60018      111.63160
C         47.06198       48.94540      112.03314
O         47.07610       47.90285      112.89208
O         45.99625       49.39877      111.64820
H         50.52653       47.54560      108.67526
H         47.64671       48.18081      109.36771
H         50.26333       49.11326      110.68988
H         49.32388       47.69712      111.23819
H         48.16325       50.56086      111.11442
H         48.89985       49.84280      112.57032
N         48.23505       49.77741      107.22096
C         48.22341       50.96752      106.39903
H         49.26227       51.31845      106.22306
H         47.74845       50.74628      105.41983
H         47.64051       51.76889      106.90204
H         47.82662       48.91378      106.83451
Ca        49.08974       47.28219      113.71922
O         51.08837       49.40631      114.58616
H         51.46239       49.34600      113.67110
H         51.56470       48.70424      115.09686
O         49.13070       44.02376      115.23009
H         48.41500       43.59704      115.76541
H         49.90024       43.40540      115.30593
O         46.93830       44.73072      112.95189
H         47.41769       44.86681      112.09633
H         47.12066       43.78773      113.19253
O         46.68733       46.03675      116.04228
H         45.98426       45.55149      115.54168
H         46.50716       45.82255      116.99210

Ca 1.0



