%chk=apoCaM-CA-Ng.loop3.water4.frame154.chk
%nprocshared=20
%mem=10GB
%nosave
#b3lyp/svp scf=(tight,noincore,xqc) Test 
#IOP(5/87=12) Density=Current Pop=(MK,readradii) iop(6/33=2) iop(6/42=6)

apoCaM-CA-Ng.loop3.water4.frame154 

   0  1 
C         63.00529       45.32310       69.87661
C         62.96768       44.46266       71.10501
O         61.95509       43.82004       71.33647
H         63.98283       45.83866       69.77104
H         62.83967       44.69147       68.97813
H         62.20381       46.08922       69.93420
N         64.03850       44.40491       71.95130
C         64.09173       43.56637       73.14749
C         63.02288       43.95431       74.17877
O         62.81088       43.20132       75.11736
C         64.00847       42.07450       72.73410
C         64.44756       41.10063       73.80160
O         64.92260       41.52216       74.99074
O         64.41281       39.90367       73.56703
H         64.87355       44.96914       71.73125
H         65.09124       43.71152       73.61506
H         64.68640       41.90689       71.86865
H         62.97336       41.82929       72.42318
N         62.34047       45.13623       74.09504
C         61.30211       45.54818       75.03371
C         60.04641       45.85221       74.23704
O         59.60031       46.99114       74.19203
C         61.78625       46.77432       75.84047
C         63.08032       46.52587       76.63842
C         62.93778       45.46666       77.74433
C         64.26750       45.28562       78.48963
N         64.14907       44.28023       79.54504
H         62.57333       45.80640       73.34819
H         61.05226       44.74208       75.75521
H         60.98494       47.09501       76.54268
H         61.98280       47.61080       75.13432
H         63.37205       47.48682       77.11516
H         63.89210       46.23247       75.93823
H         62.64957       44.48831       77.31318
H         62.14858       45.78380       78.46035
H         64.57757       46.25474       78.93950
H         65.05310       44.96527       77.76871
H         65.07184       44.18194       80.02712
H         63.43107       44.57648       80.24530
H         63.88311       43.35564       79.13444
N         59.43704       44.84731       73.55413
C         58.30227       45.03654       72.66159
C         57.09811       44.31434       73.24846
O         57.23001       43.15822       73.62337
C         58.72964       44.52743       71.27318
C         57.74273       44.85334       70.19940
O         58.06290       45.57641       69.26915
O         56.51139       44.32755       70.23675
H         59.81805       43.89175       73.64754
H         58.05930       46.11688       72.55293
H         58.91064       43.43194       71.30101
H         59.68432       45.03120       71.00469
N         55.90743       44.96095       73.43091
C         54.79345       44.37654       74.17103
C         54.19570       43.10823       73.58473
O         53.44197       42.45786       74.29409
H         55.81139       45.93583       73.11039
H         53.97772       45.12393       74.28589
H         55.17036       44.13758       75.18780
N         54.44248       42.70758       72.30785
C         53.93491       41.46433       71.72692
C         55.05768       40.61791       71.11271
O         54.76278       39.57699       70.54162
C         52.82168       41.76253       70.70556
C         53.26677       42.59181       69.53741
N         53.23991       42.07915       68.29257
O         53.63135       43.74457       69.70654
H         54.99365       43.32705       71.70949
H         53.44993       40.84030       72.50906
H         51.98395       42.29256       71.20789
H         52.41965       40.79050       70.34334
H         52.93919       41.11033       68.11622
H         53.52674       42.66815       67.50788
N         56.36914       40.97413       71.23042
C         57.48154       40.19870       70.71677
C         57.59999       40.28441       69.21855
O         57.66545       39.25378       68.56467
H         56.62299       41.81259       71.75768
H         57.42365       39.14789       71.07616
H         58.42150       40.63514       71.11983
N         57.68769       41.50399       68.61501
C         57.96396       41.68945       67.19711
C         56.76268       42.27567       66.48463
O         55.90857       42.87092       67.12232
C         59.18319       42.62934       67.00625
C         60.48802       42.06332       67.52787
C         61.53240       41.78966       66.62759
C         60.69469       41.81713       68.89826
C         62.74451       41.26320       67.08189
C         61.90581       41.28537       69.34898
C         62.93466       41.00385       68.44163
O         64.10648       40.48707       68.86303
H         57.58148       42.34409       69.19655
H         58.17410       40.71027       66.71588
H         58.99410       43.60804       67.50113
H         59.28920       42.83296       65.91832
H         61.40931       41.97960       65.56893
H         59.93074       42.03487       69.62712
H         63.53531       41.05347       66.37328
H         62.04244       41.09316       70.40388
H         64.27507       40.28531       69.79446
N         56.65963       42.15525       65.12774
C         55.55449       42.71678       64.35392
C         54.25892       41.98088       64.69798
O         53.35296       42.62086       65.20289
C         55.85821       42.70337       62.82042
C         57.21753       43.37155       62.45414
C         54.73502       43.39136       62.01944
C         57.32039       44.86641       62.77624
H         57.41226       41.65299       64.63682
H         55.45342       43.78483       64.63958
H         55.92454       41.64390       62.48890
H         57.39016       43.24565       61.36353
H         58.05463       42.85469       62.96291
H         53.77096       42.89779       62.16174
H         54.59338       44.44428       62.33678
H         54.95987       43.36067       60.93276
H         56.57261       45.45681       62.20955
H         57.18910       45.04936       63.85813
H         58.32486       45.23574       62.48334
N         54.09574       40.63965       64.47343
C         52.90424       39.90016       64.92080
C         51.59047       40.39697       64.32048
O         50.54360       40.04847       64.84584
C         53.03731       38.39506       64.63557
O         54.15729       37.86291       65.29242
H         54.87012       40.12354       64.02993
H         52.83309       40.03848       66.02093
H         53.09065       38.21469       63.53510
H         52.13817       37.85349       65.00186
H         54.89118       37.81140       64.62641
N         51.57075       41.21774       63.23564
C         50.37879       41.81118       62.64289
C         49.63742       42.67095       63.65526
O         48.43478       42.50359       63.82447
C         49.48809       40.73315       62.00643
H         52.45953       41.44732       62.79324
H         50.71682       42.48294       61.82188
H         48.62766       41.20664       61.48708
H         50.07042       40.15353       61.25948
H         49.09391       40.03151       62.77067
N         50.31005       43.59522       64.39875
C         49.66547       44.43004       65.40790
C         50.11357       45.87230       65.30176
O         51.11604       46.13583       64.64769
C         50.02920       43.90110       66.79757
H         51.33240       43.66302       64.28449
H         48.56085       44.38627       65.29089
H         49.71090       42.84089       66.89066
H         51.12883       43.95346       66.95848
H         49.52141       44.49101       67.58896
N         49.42738       46.86758       65.94676
C         49.88979       48.25565       66.03915
C         50.12248       48.91726       64.67991
O         50.65487       50.01946       64.66118
C         51.18061       48.28587       66.88225
C         50.94649       47.78624       68.32200
C         52.27228       47.49774       68.93998
O         52.67261       48.10634       69.91900
O         53.03002       46.55455       68.35381
H         48.55860       46.62312       66.44744
H         49.13886       48.86922       66.58432
H         51.60348       49.31322       66.94669
H         51.93546       47.65635       66.37169
H         50.38266       46.83047       68.33338
H         50.36901       48.54415       68.89690
N         49.75831       48.33026       63.50355
C         50.07288       48.92360       62.22317
H         51.17647       48.99379       62.10779
H         49.67612       48.28600       61.40481
H         49.62419       49.93526       62.14541
H         49.24845       47.43736       63.49377
Ca        55.18234       46.14378       68.75165
O         55.73352       48.73042       67.38030
H         55.13613       49.06221       68.09682
H         56.59469       48.55537       67.83727
O         55.72778       47.62694       71.01573
H         56.54915       47.97847       71.43961
H         54.98181       48.05476       71.50493
O         56.94739       45.95016       66.31817
H         57.68177       45.29340       66.22713
H         57.30385       46.77979       65.91265
O         53.96879       45.57318       65.92191
H         53.46748       45.14299       65.18720
H         53.96093       46.53534       65.69152

Ca 1.0



