%chk=apoCaM-CA-Ng.loop1.water3.frame1211.chk
%nprocshared=20
%mem=10GB
%nosave
#b3lyp/svp scf=(tight,noincore,xqc) Test 
#IOP(5/87=12) Density=Current Pop=(MK,readradii) iop(6/33=2) iop(6/42=6)

apoCaM-CA-Ng.loop1.water3.frame1211 

   0  1 
C         29.98222       64.52319      102.07551
C         28.88167       64.82861      103.04366
O         27.81687       65.25245      102.61588
H         30.87451       65.13743      102.31870
H         30.24385       63.44721      102.13984
H         29.66438       64.75451      101.03564
N         29.08109       64.65668      104.38269
C         28.06294       64.96038      105.37809
C         28.50026       66.16355      106.18599
O         28.57669       66.11187      107.40426
C         27.77143       63.72683      106.25367
C         27.29364       62.56090      105.43471
O         27.99083       61.40906      105.43395
O         26.26987       62.64629      104.77561
H         30.00287       64.32914      104.71055
H         27.11628       65.25762      104.88667
H         26.98502       63.97804      106.99909
H         28.69488       63.43707      106.80081
N         28.77917       67.31759      105.52094
C         29.10582       68.57349      106.18205
C         27.95162       69.02706      107.06919
O         28.21115       69.26603      108.24206
C         29.50010       69.67645      105.16217
C         30.68136       69.29577      104.23819
C         31.99053       68.99975      104.99342
C         33.12726       68.52455      104.07149
N         33.51674       69.52909      103.08184
H         28.72778       67.29818      104.49344
H         29.98894       68.41768      106.83525
H         29.77071       70.59946      105.72118
H         28.63920       69.92885      104.51198
H         30.84633       70.14821      103.54627
H         30.41105       68.41462      103.62138
H         31.82787       68.17359      105.71387
H         32.30942       69.90273      105.55813
H         32.82137       67.58820      103.55313
H         34.00865       68.28733      104.70819
H         34.33798       69.16845      102.54422
H         32.74012       69.70259      102.40545
H         33.78845       70.41929      103.55804
N         26.64882       69.13927      106.66436
C         26.12005       68.81511      105.33848
C         25.23449       67.57029      105.40437
O         24.84561       67.14836      106.48148
C         25.44231       70.04729      104.70479
C         24.48273       70.75051      105.62860
O         23.41835       70.11027      106.14076
O         24.69072       71.91139      105.94445
H         25.96161       69.42622      107.37848
H         26.92367       68.54125      104.64595
H         24.93484       69.75815      103.76153
H         26.24041       70.77742      104.44219
N         25.01549       66.84381      104.26728
C         24.33827       65.54956      104.24378
C         22.83330       65.69202      104.44580
O         22.41451       66.55199      103.45750
H         25.42564       67.18015      103.38325
H         24.78159       64.86161      104.99113
H         24.48891       65.10179      103.23463
N         22.14418       64.40993      104.22722
C         20.66034       64.49478      104.32936
C         20.01869       63.50114      103.35761
O         20.73554       62.64882      102.85138
C         20.22018       64.20715      105.78795
C         20.68890       65.27736      106.72584
O         20.29880       66.42538      106.58390
O         21.52449       64.97456      107.73704
H         22.53887       63.64840      104.82773
H         20.31212       65.49868      104.00681
H         20.62242       63.21918      106.10292
H         19.12796       64.14539      105.90030
N         18.68815       63.51038      103.01305
C         17.69286       64.49782      103.41972
C         17.87762       65.84525      102.75537
O         18.70133       65.97890      101.86247
H         18.35056       62.75332      102.39771
H         17.66707       64.60296      104.51328
H         16.68106       64.14579      103.12259
N         17.12350       66.90515      103.17469
C         17.21786       68.26242      102.62385
C         18.65593       68.73469      102.64305
O         19.34077       68.45227      103.61200
C         16.34164       69.25944      103.43663
C         14.84008       68.95023      103.36119
O         16.56251       70.58328      103.01140
H         16.48355       66.73725      103.96521
H         16.86197       68.26298      101.57002
H         16.64591       69.19943      104.50357
H         16.32737       70.63602      102.04830
H         14.60672       67.94055      103.75323
H         14.28080       69.69031      103.97296
H         14.48449       69.01797      102.31142
N         19.17333       69.42793      101.57870
C         20.57150       69.83936      101.42435
C         21.03193       70.86750      102.51344
O         20.85258       70.43924      103.83963
C         21.49114       68.60129      101.30007
C         21.08986       67.68566      100.11723
C         22.97525       69.01959      101.19906
C         21.81609       66.33381      100.13770
H         18.54187       69.65167      100.79470
H         20.67513       70.36670      100.44904
H         21.31399       68.01853      102.19098
H         21.27570       68.20109       99.15126
H         20.00628       67.45754      100.17969
H         23.15277       69.59417      100.26529
H         23.27261       69.65302      102.05804
H         23.65122       68.14282      101.21984
H         21.45072       65.70136       99.30312
H         22.91148       66.44885      100.01764
H         21.60912       65.79881      101.08945
N         20.32195       72.13163      102.34533
C         20.84306       73.20205      103.21582
C         19.74399       74.18693      103.55227
O         19.99681       75.07316      104.35606
C         22.12656       73.88165      102.65520
C         21.93293       74.58345      101.30682
O         23.15695       72.93635      102.52451
H         20.27900       72.43301      101.34696
H         21.11671       72.77596      104.20696
H         22.44788       74.67215      103.37479
H         23.53045       72.78844      103.43286
H         21.68962       73.86278      100.50030
H         21.13119       75.34770      101.37332
H         22.87839       75.09054      101.01830
N         18.48222       74.06842      103.03360
C         17.37906       74.90626      103.48100
C         17.11996       74.58345      104.94466
O         16.58349       73.52093      105.22173
C         16.12739       74.63980      102.60209
C         14.90783       75.45850      103.02643
O         16.43991       74.94690      101.26563
H         18.28211       73.34351      102.32996
H         17.67781       75.97121      103.35792
H         15.86556       73.55640      102.69407
H         15.99581       74.26832      100.69223
H         14.60907       75.20897      104.06599
H         15.12498       76.54424      102.95538
H         14.05357       75.21706      102.35749
N         17.56184       75.42439      105.92922
C         17.46592       75.16868      107.36791
C         18.21056       73.90219      107.77724
O         17.90581       72.83042      107.27793
C         16.00694       75.16293      107.85748
C         15.34522       76.52371      107.58302
C         13.98233       76.64532      108.26928
C         13.37828       78.03519      108.02109
N         12.11947       78.19854      108.74596
H         18.03389       76.29621      105.64597
H         17.95699       76.01783      107.89472
H         16.02794       74.99737      108.95781
H         15.41630       74.34362      107.39464
H         15.23821       76.67455      106.48611
H         15.99805       77.32822      107.98924
H         14.12189       76.50572      109.36412
H         13.29211       75.85999      107.89203
H         13.20238       78.17478      106.93115
H         14.09205       78.81853      108.36283
H         12.28689       78.10974      109.77494
H         11.73416       79.15071      108.55019
H         11.42734       77.47890      108.43614
N         19.19230       73.94537      108.72388
C         19.96189       72.76253      109.09459
C         20.85536       72.32855      107.93490
O         20.69188       71.20078      107.49500
C         20.74881       72.96186      110.40854
C         19.80332       73.10892      111.61185
C         20.57878       73.24502      112.89045
O         21.41170       72.26224      113.28471
O         20.44846       74.23984      113.58533
H         19.38892       74.83858      109.20078
H         19.25632       71.92605      109.31082
H         21.40511       73.84783      110.36523
H         21.37826       72.05963      110.57758
H         19.15640       72.20805      111.69258
H         19.15041       73.99772      111.47410
N         21.79892       73.11790      107.33994
C         22.12290       74.47753      107.71339
H         22.89538       74.87657      107.02216
H         21.23107       75.13039      107.63843
H         22.56220       74.51478      108.72564
H         22.31685       72.72475      106.54044
Ca        22.06177       68.59138      104.33580
O         22.79436       68.19421      108.35854
H         23.31073       67.44489      108.74809
H         21.93093       67.78852      108.09838
O         18.68605       70.26657      105.74068
H         18.44086       71.06367      105.20650
H         18.11564       70.31617      106.54745
O         19.25321       68.72743      108.64238
H         19.97572       69.01652      109.25467
H         19.11059       67.77209      108.85948

Ca 1.0



