%chk=apoCaM-CA-Ng.loop2.water4.frame683.chk
%nprocshared=20
%mem=10GB
%nosave
#b3lyp/svp scf=(tight,noincore,xqc) Test 
#IOP(5/87=12) Density=Current Pop=(MK,readradii) iop(6/33=2) iop(6/42=6)

apoCaM-CA-Ng.loop2.water4.frame683 

   -2  1 
C         82.37924       64.69014       64.82602
C         81.20467       65.53842       64.42589
O         81.27080       66.16738       63.38182
H         83.28457       65.32677       64.91604
H         82.20709       64.18568       65.80015
H         82.55893       63.91201       64.05465
N         80.10671       65.62420       65.23089
C         78.92638       66.43913       64.94348
C         77.97945       65.70891       63.98864
O         76.89908       65.30663       64.40055
C         78.22738       66.78540       66.28183
C         77.04885       67.70235       66.08984
O         77.20065       68.80519       65.58883
O         75.81941       67.30976       66.47482
H         80.14017       65.12545       66.13392
H         79.23745       67.41402       64.50481
H         78.95381       67.29581       66.95071
H         77.89473       65.85035       66.78478
N         78.31573       65.51607       62.68453
C         77.47114       64.80822       61.72841
C         78.22255       63.62039       61.18024
O         79.43699       63.57660       61.33756
C         77.15246       65.76592       60.57122
H         79.20627       65.89231       62.33701
H         76.53368       64.46043       62.20846
H         76.53199       65.29304       59.78808
H         76.61704       66.65990       60.94937
H         78.09757       66.10123       60.08644
N         77.63600       62.62922       60.45563
C         76.19708       62.38156       60.25334
C         75.50930       61.87810       61.52997
O         76.15263       61.76651       62.56408
C         76.02700       61.29956       59.14706
C         76.52266       59.94727       59.58737
O         77.78696       59.84128       60.01530
O         75.79246       58.96945       59.56958
H         78.31194       62.00049       60.00625
H         75.70109       63.29406       59.87673
H         76.59696       61.61738       58.24810
H         74.96663       61.20957       58.83342
N         74.21973       61.42523       61.47600
C         73.60547       60.64733       62.54065
C         73.13609       61.45682       63.72044
O         73.20633       62.67687       63.68215
H         73.70131       61.48478       60.58852
H         74.30767       59.85560       62.85739
H         72.70088       60.14639       62.13124
N         72.57368       60.85059       64.80937
C         72.54118       59.39520       65.01474
C         73.91264       58.91286       65.49358
O         74.78101       59.75036       65.70375
C         71.46693       59.03894       66.07373
C         70.05830       59.41910       65.66626
N         69.02585       59.16896       66.50448
O         69.83868       59.94501       64.58426
H         72.18535       61.45810       65.54895
H         72.25971       58.87812       64.07206
H         71.71136       59.54947       67.03115
H         71.46662       57.94366       66.25492
H         69.18747       58.72514       67.42040
H         68.06159       59.41911       66.23825
N         74.17290       57.58890       65.74434
C         75.39381       57.18404       66.43206
C         75.91098       55.80007       66.08530
O         76.00621       54.97998       66.98558
H         73.41728       56.89742       65.63094
H         75.18139       57.21297       67.52343
H         76.21742       57.90609       66.24465
N         76.35546       55.49911       64.83069
C         77.08086       54.25933       64.50907
C         78.50705       54.61138       64.07605
O         78.83617       55.78573       64.04178
C         76.31006       53.41834       63.46793
C         74.98612       52.90824       64.05104
O         76.06412       54.17659       62.31676
H         76.24763       56.20412       64.08926
H         77.19938       53.62690       65.41530
H         76.92661       52.52786       63.20770
H         75.80411       53.53941       61.60085
H         74.32265       53.75228       64.33336
H         74.46146       52.27613       63.30358
H         75.18212       52.28531       64.95067
N         79.43170       53.63169       63.80195
C         80.85082       53.93012       63.58207
C         81.29986       53.52025       62.18662
O         81.26288       52.34816       61.84810
C         81.73629       53.21805       64.64926
C         83.23794       53.57424       64.43515
C         81.27698       53.60207       66.06902
C         84.19706       52.78887       65.32866
H         79.14271       52.64495       63.81906
H         81.02686       55.01841       63.69984
H         81.60821       52.11907       64.52851
H         83.39469       54.66331       64.58964
H         83.53837       53.33397       63.39370
H         80.21262       53.32858       66.22503
H         81.85453       53.05442       66.83945
H         81.39297       54.69457       66.23503
H         85.24191       53.07070       65.07708
H         84.03678       53.01138       66.40140
H         84.07445       51.69914       65.15076
N         81.80068       54.47382       61.35274
C         82.40400       54.22654       60.04831
C         83.80987       54.82772       59.95612
O         84.40882       54.68044       58.89720
C         81.48374       54.72058       58.91265
C         80.87497       56.05299       59.18033
O         81.09005       57.00869       58.45249
O         80.00207       56.15393       60.19791
H         81.76716       55.45037       61.66548
H         82.53320       53.13686       59.87059
H         80.62755       54.01907       58.81577
H         82.02952       54.70774       57.94376
N         84.44888       55.41333       61.02000
C         85.87529       55.72784       60.99164
C         86.17319       57.11072       61.58674
O         86.94786       57.17514       62.53305
C         86.55684       54.58904       61.79675
C         88.05942       54.43363       61.73043
C         88.62710       53.41177       62.51227
C         88.90225       55.21698       60.91742
C         90.00119       53.17140       62.48554
C         90.28027       54.96685       60.88944
C         90.82800       53.94575       61.67152
H         83.97990       55.47342       61.93396
H         86.25282       55.69538       59.94781
H         86.15034       53.62219       61.42520
H         86.24635       54.69000       62.86194
H         87.99798       52.79502       63.14383
H         88.51036       56.00717       60.29338
H         90.42157       52.37936       63.09222
H         90.92566       55.56081       60.25574
H         91.89234       53.75121       61.64582
N         85.62289       58.27585       61.11125
C         85.92544       59.59723       61.66003
C         85.69368       59.74644       63.15706
O         86.15742       60.72536       63.72521
C         84.96068       60.52752       60.91780
C         84.84213       59.84576       59.57462
C         84.73945       58.37008       59.96989
H         86.99328       59.80335       61.42096
H         83.95243       60.45767       61.38902
H         85.26497       61.59643       60.90006
H         84.01723       60.21187       58.92713
H         85.81022       60.00414       59.04657
H         83.71330       58.08975       60.29416
H         85.06756       57.75108       59.10841
N         84.94917       58.83986       63.85189
C         84.75290       58.90580       65.28919
C         86.07725       58.59510       65.95317
O         86.59103       59.42626       66.68906
C         83.66373       57.92056       65.80441
C         82.21035       58.28260       65.41120
C         81.75072       57.89575       64.03014
O         80.62298       58.19162       63.67332
O         82.50804       57.14951       63.21534
H         84.53261       58.06592       63.33976
H         84.41608       59.92868       65.57435
H         83.69021       58.01616       66.91306
H         83.88975       56.86028       65.56346
H         82.05974       59.37241       65.56743
H         81.52511       57.74554       66.10227
N         86.70091       57.40913       65.70771
C         87.98470       57.07420       66.28048
H         88.74481       57.82137       65.96727
H         87.91346       57.05342       67.38790
H         88.30628       56.07273       65.92196
H         86.25816       56.72380       65.07680
Ca        78.95094       58.05176       60.50523
O         76.97089       55.95639       60.44184
H         76.74022       56.46649       61.25851
H         76.41667       56.36303       59.73111
O         81.16923       60.22372       60.60170
H         81.49454       59.76906       61.41874
H         81.28533       59.55243       59.88323
O         79.03916       60.57978       63.53778
H         78.33172       61.05390       64.04217
H         78.97074       60.93255       62.61553
O         76.72893       58.61994       63.00344
H         76.51833       59.20072       63.77621
H         75.87351       58.16836       62.79333

Ca 1.0



