%chk=apoCaM-CA-Ng.loop2.water2.frame951.chk
%nprocshared=20
%mem=10GB
%nosave
#b3lyp/svp scf=(tight,noincore,xqc) Test 
#IOP(5/87=12) Density=Current Pop=(MK,readradii) iop(6/33=2) iop(6/42=6)

apoCaM-CA-Ng.loop2.water2.frame951 

   -2  1 
C         69.98693      103.48489       35.15206
C         68.58516      103.01043       35.39876
O         67.90487      102.62975       34.45659
H         70.69932      102.84650       35.71620
H         70.23920      103.43168       34.07151
H         70.09244      104.53610       35.49317
N         68.08411      103.00953       36.66458
C         66.73885      102.54819       36.99012
C         66.59812      101.07637       36.64559
O         65.70120      100.72217       35.89489
C         66.44655      102.78145       38.48818
C         65.03604      102.40381       38.84817
O         64.09323      102.96653       38.31406
O         64.80633      101.44849       39.76877
H         68.69052      103.35613       37.42508
H         66.00356      103.14962       36.40850
H         66.58654      103.85824       38.72578
H         67.15885      102.19892       39.11211
N         67.47868      100.17331       37.16271
C         67.45995       98.73783       36.89027
C         68.63600       98.09340       37.61614
O         69.75328       98.51792       37.35032
C         67.60831       98.44231       35.38699
H         68.21520      100.54057       37.78573
H         66.48565       98.32752       37.20745
H         67.61357       97.34267       35.22234
H         66.76218       98.85040       34.80042
H         68.55242       98.86918       34.98701
N         68.54271       97.07089       38.51545
C         67.33659       96.34133       38.90131
C         67.36235       95.98731       40.38426
O         68.35635       96.22066       41.05747
C         67.18466       95.06536       38.03231
C         68.47708       94.30675       37.89185
O         68.65426       93.08848       38.42612
O         69.40108       94.80803       37.26953
H         69.43964       96.70720       38.87661
H         66.43294       96.96504       38.77811
H         66.87188       95.34999       37.00449
H         66.38806       94.41425       38.45118
N         66.24397       95.46559       40.96591
C         66.13251       95.14347       42.37960
C         65.37608       93.84415       42.56957
O         64.25725       93.91276       43.05891
H         65.39162       95.37428       40.39130
H         65.51877       95.94899       42.84008
H         67.10815       95.14327       42.90568
N         65.84116       92.61840       42.19049
C         67.17275       92.33848       41.66681
C         68.18400       92.41713       42.80613
O         68.08661       91.63104       43.73916
C         67.15970       90.92211       41.03427
C         68.43539       90.47965       40.36705
N         68.50148       89.25132       39.80540
O         69.40660       91.21412       40.32156
H         65.18535       91.82597       42.28991
H         67.40231       93.06246       40.85666
H         66.36200       90.89632       40.25926
H         66.90278       90.17632       41.81803
H         67.68830       88.61893       39.82809
H         69.36626       88.92723       39.35110
N         69.15649       93.37112       42.81786
C         70.07566       93.55947       43.93244
C         71.30815       92.67465       43.88793
O         72.13039       92.80335       44.78290
H         69.17206       94.06484       42.05996
H         69.53203       93.44216       44.89608
H         70.44936       94.60538       43.90000
N         71.53179       91.78923       42.87538
C         72.74100       90.97585       42.75128
C         73.45937       91.30715       41.44621
O         72.97274       92.12694       40.68119
C         72.37063       89.47261       42.81650
C         71.73622       89.10525       44.15969
O         71.47587       89.13931       41.78383
H         70.82751       91.69159       42.13984
H         73.45075       91.19283       43.57943
H         73.29743       88.85616       42.74132
H         72.00211       88.70621       41.06194
H         70.78810       89.66164       44.31695
H         71.51352       88.01717       44.18399
H         72.43557       89.33857       44.99098
N         74.63253       90.68515       41.12739
C         75.35474       90.90557       39.87619
C         75.30319       89.60636       39.09698
O         75.82884       88.60901       39.57084
C         76.80958       91.36969       40.17699
C         77.71643       91.44763       38.91941
C         76.80161       92.70885       40.93740
C         77.25041       92.42334       37.83970
H         75.02238       89.99601       41.78736
H         74.85400       91.69320       39.27441
H         77.28001       90.61447       40.84606
H         77.79170       90.43822       38.46123
H         78.74199       91.73859       39.23625
H         76.24310       92.61340       41.89228
H         77.83950       93.01848       41.18351
H         76.31912       93.50920       40.33853
H         77.21241       93.46289       38.22338
H         77.96551       92.39831       36.99042
H         76.25549       92.12480       37.45938
N         74.59926       89.53571       37.92798
C         74.33769       88.28041       37.23371
C         74.70733       88.29803       35.75605
O         74.43545       87.28829       35.11767
C         72.84472       87.92213       37.41716
C         71.90608       88.91491       36.78662
O         71.91419       89.09749       35.57990
O         71.03159       89.58935       37.55230
H         74.13153       90.38302       37.57748
H         74.91242       87.45103       37.70053
H         72.63212       87.86340       38.50775
H         72.63879       86.91863       36.98561
N         75.28333       89.36771       35.12008
C         75.54705       89.34412       33.67854
C         76.12702       90.67095       33.17700
O         77.14817       91.08684       33.71153
C         76.56180       88.22806       33.29550
C         76.49484       87.95302       31.81214
C         77.54736       88.30451       30.95332
C         75.34904       87.33217       31.27779
C         77.44689       88.04960       29.58020
C         75.25709       87.07221       29.90922
C         76.30410       87.43365       29.05963
H         75.50071       90.22223       35.65491
H         74.57684       89.12678       33.18524
H         76.36534       87.25811       33.78994
H         77.58065       88.53307       33.62137
H         78.43504       88.78651       31.34178
H         74.52759       87.04627       31.92407
H         78.25443       88.33047       28.91749
H         74.37279       86.59233       29.50884
H         76.22867       87.23537       27.99832
N         75.61226       91.35305       32.10441
C         76.28129       92.48737       31.47788
C         75.99234       93.81915       32.15485
O         76.45877       94.83007       31.64857
C         75.72096       92.45794       30.05198
C         74.28510       92.04257       30.29759
C         74.46401       90.92753       31.32495
H         77.38358       92.34206       31.41995
H         75.86416       93.39000       29.46396
H         76.21236       91.62290       29.50003
H         73.76823       92.90045       30.78460
H         73.70969       91.74660       29.39519
H         73.53875       90.81607       31.92921
H         74.71797       89.97350       30.81942
N         75.23379       93.91137       33.28321
C         74.91569       95.18599       33.91953
C         76.16861       95.95635       34.29427
O         76.27314       97.11490       33.91436
C         73.95165       94.98889       35.10818
C         74.48748       94.16561       36.29248
C         73.35849       93.90877       37.24512
O         72.93353       92.64909       37.45929
O         72.75787       94.84298       37.75247
H         74.84379       93.05135       33.69026
H         74.34483       95.80377       33.18857
H         73.04926       94.47631       34.70318
H         73.63095       95.98694       35.48198
H         75.30800       94.70383       36.81148
H         74.86451       93.18768       35.93198
N         77.18398       95.36382       34.98250
C         78.41525       96.04817       35.32529
H         79.26767       95.54422       34.82307
H         78.41168       97.11440       35.01304
H         78.56607       96.00744       36.42333
H         77.10307       94.37163       35.24853
Ca        70.77243       92.41713       38.04022
O         71.35254       94.52583       40.59034
H         71.93071       95.30497       40.39586
H         70.53361       94.68447       40.05817
O         69.79935       92.05268       35.15859
H         70.44200       91.30423       35.23557
H         70.21770       92.66969       34.50738

Ca 1.0



