%chk=apoCaM-CA-Ng.loop3.water3.frame691.chk
%nprocshared=20
%mem=10GB
%nosave
#b3lyp/svp scf=(tight,noincore,xqc) Test 
#IOP(5/87=12) Density=Current Pop=(MK,readradii) iop(6/33=2) iop(6/42=6)

apoCaM-CA-Ng.loop3.water3.frame691 

   0  1 
C        100.04375       79.45686      104.09512
C        101.40949       79.81626      104.59414
O        101.59858       80.91052      105.10596
H         99.32710       80.28584      104.27207
H        100.08725       79.23272      103.00961
H         99.68432       78.55592      104.63845
N        102.41254       78.90254      104.51363
C        103.73555       79.13073      105.08463
C        104.49567       80.20114      104.30196
O        104.11221       80.47807      103.17263
C        104.46253       77.75808      105.14862
C        105.61342       77.65447      106.09869
O        106.22308       76.46709      106.27199
O        105.96487       78.60480      106.76520
H        102.18810       77.97988      104.10689
H        103.58055       79.48947      106.11284
H        104.76533       77.44196      104.12686
H        103.74092       77.00623      105.53433
N        105.58419       80.84258      104.82921
C        106.39683       81.79689      104.07815
C        107.76558       81.19139      103.74877
O        108.47600       81.75328      102.92896
C        106.57934       83.12680      104.85746
C        105.27788       83.67589      105.47189
C        105.50170       85.03912      106.15681
C        104.26066       85.49316      106.94724
N        104.43554       86.83462      107.50214
H        105.86630       80.64589      105.79435
H        105.89411       82.01694      103.11179
H        107.03460       83.87835      104.17592
H        107.28473       82.95853      105.70098
H        104.93212       82.94266      106.22661
H        104.49214       83.78345      104.69431
H        105.74285       85.78898      105.37289
H        106.35663       84.97724      106.86602
H        104.09140       84.79551      107.78814
H        103.36137       85.48287      106.29373
H        104.51903       87.53178      106.72787
H        103.59809       87.07378      108.08239
H        105.28567       86.87108      108.11026
N        108.20717       80.06192      104.38362
C        109.48377       79.39687      104.14946
C        109.32146       77.88824      103.89963
O        110.33259       77.24277      103.65465
C        110.42115       79.64751      105.36488
C        109.73623       79.51734      106.71697
O        109.02745       78.41219      107.02630
O        109.76121       80.45633      107.49285
H        107.63968       79.66165      105.13413
H        109.98545       79.81006      103.24566
H        110.80791       80.68835      105.29024
H        111.30389       78.97452      105.29882
N        108.11504       77.24507      103.94730
C        107.95268       75.80603      103.74354
C        108.62685       74.91265      104.79002
O        108.57332       73.70336      104.62152
H        107.25779       77.78792      104.09597
H        108.35404       75.54848      102.74003
H        106.86755       75.56121      103.74281
N        109.29543       75.41910      105.86677
C        110.08915       74.63735      106.81466
C        109.64711       74.86371      108.25383
O        109.51398       76.00651      108.65997
C        111.55800       75.10492      106.73128
C        112.22459       74.87649      105.39799
N        113.50983       75.25993      105.22740
O        111.62527       74.34639      104.47431
H        109.31184       76.42758      105.99297
H        110.06008       73.55027      106.58197
H        112.15138       74.55811      107.49677
H        111.60846       76.19311      106.96345
H        114.02905       75.70676      105.99790
H        113.98715       75.11072      104.32677
N        109.56860       73.82241      109.13097
C        109.35287       74.01613      110.55963
C        107.91355       74.31737      110.87259
O        107.08489       73.46382      110.58586
H        109.79008       72.87170      108.79851
H        110.04158       74.80079      110.94146
H        109.60074       73.07312      111.09435
N        107.52845       75.49329      111.46146
C        106.13035       75.76271      111.78303
C        105.53723       76.80618      110.80638
O        105.84060       76.45240      109.48848
C        105.92561       76.25630      113.23746
C        106.45167       75.38225      114.35402
C        106.13066       74.01586      114.44251
C        107.22399       75.96717      115.37456
C        106.58263       73.25288      115.52820
C        107.65960       75.20803      116.46299
C        107.34304       73.85024      116.54540
O        107.76688       73.13596      117.60817
H        108.23190       76.22480      111.64436
H        105.53775       74.83084      111.65628
H        104.83144       76.34408      113.41064
H        106.35202       77.27891      113.33374
H        105.52941       73.53957      113.67959
H        107.46623       77.02231      115.34711
H        106.33159       72.20113      115.58574
H        108.23485       75.68073      117.24976
H        107.56348       72.19596      117.71439
N        104.07434       76.89416      111.03181
C        103.19692       77.65147      110.11665
C        103.76653       79.01441      109.80455
O        104.79345       79.09852      109.14832
C        102.82409       76.88551      108.80166
C        101.87591       77.71630      107.89020
C        102.20323       75.50378      109.07062
C        100.50931       78.07250      108.47956
H        103.64273       75.97505      111.27508
H        102.25044       77.79543      110.67849
H        103.74899       76.71684      108.21203
H        101.71100       77.16716      106.93825
H        102.37082       78.66517      107.64049
H        101.93616       75.01478      108.10961
H        102.92061       74.82979      109.57847
H        101.29050       75.59136      109.69576
H         99.94678       78.67838      107.73711
H         99.91772       77.16223      108.69933
H        100.61306       78.68415      109.39796
N        103.13177       80.14049      110.22897
C        103.62009       81.46179      109.87966
C        103.05302       82.50978      110.80955
O        102.50273       83.50870      110.36437
C        103.32346       81.75202      108.39860
O        101.94079       81.78635      108.15411
H        102.29795       80.05402      110.83041
H        104.71720       81.48965      110.05831
H        103.82456       81.01922      107.73408
H        103.74330       82.72869      108.13343
H        101.65855       80.86245      107.93318
N        103.19349       82.33129      112.15087
C        102.78555       83.30977      113.14538
C        103.97906       83.64712      114.03653
O        104.94573       82.89630      114.02602
C        101.64128       82.70947      113.96988
H        103.62141       81.45285      112.48495
H        102.41677       84.22426      112.64205
H        101.97280       81.77268      114.46661
H        101.27441       83.40254      114.74886
H        100.78927       82.46866      113.29796
N        104.02387       84.73245      114.86167
C        103.06637       85.83021      114.85485
C        103.15782       86.61856      116.15668
O        104.26079       86.98764      116.53690
C        103.37157       86.77943      113.68815
H        104.87084       84.83713      115.44301
H        102.04875       85.44028      114.70835
H        104.39183       87.20747      113.78499
H        103.30783       86.26063      112.71169
H        102.63381       87.61117      113.67952
N        102.06383       86.98154      116.88864
C        100.68646       86.75790      116.46103
C        100.19791       85.35283      116.78104
O         99.10528       85.01555      116.34574
C         99.74717       87.80986      117.08563
C        100.15212       89.23715      116.67333
C         99.19799       90.25156      117.22844
O         98.56937       90.97832      116.47569
O         99.04145       90.37607      118.56010
H        102.23042       87.55805      117.72873
H        100.61951       86.92295      115.36345
H         99.75697       87.71418      118.19397
H         98.71103       87.62550      116.72398
H        100.16310       89.30868      115.56287
H        101.16983       89.47938      117.04499
N        100.92833       84.48435      117.54097
C        100.48318       83.14235      117.86359
H         99.50924       82.89025      117.39348
H        101.23870       82.41001      117.51083
H        100.37369       83.04521      118.96427
H        101.83484       84.77514      117.93307
Ca       107.55911       77.83461      108.71706
O        107.38396       79.43414      111.31531
H        107.26882       80.29132      111.79658
H        108.04285       78.92998      111.85591
O        110.43088       78.69343      110.17611
H        111.27664       78.41009      109.74647
H        110.29627       79.62446      109.86869
O        107.17151       81.39307      108.17840
H        107.87187       82.03268      107.89665
H        106.43715       81.97262      108.49582

Ca 1.0



