%chk=apoCaM-CA-Ng.loop2.water3.frame272.chk
%nprocshared=20
%mem=10GB
%nosave
#b3lyp/svp scf=(tight,noincore,xqc) Test 
#IOP(5/87=12) Density=Current Pop=(MK,readradii) iop(6/33=2) iop(6/42=6)

apoCaM-CA-Ng.loop2.water3.frame272 

   -2  1 
C         27.31893       33.66817       29.94573
C         26.88706       33.87619       31.36556
O         25.93254       33.24715       31.79639
H         28.36580       33.30167       29.92110
H         26.66435       32.92618       29.43973
H         27.25378       34.63085       29.39697
N         27.56553       34.74443       32.16515
C         27.16713       35.03054       33.53863
C         25.86026       35.80515       33.52702
O         25.81817       36.87345       32.92984
C         28.27439       35.84471       34.24833
C         28.02747       36.08068       35.71848
O         28.94435       36.75429       36.43820
O         27.02496       35.65840       36.27375
H         28.40114       35.21066       31.77740
H         27.06718       34.06816       34.08893
H         28.40648       36.82559       33.74149
H         29.22921       35.28143       34.16516
N         24.75042       35.33582       34.16864
C         23.48864       36.07326       34.16180
C         22.88021       36.16591       32.76659
O         21.98527       36.97660       32.57472
C         22.47980       35.42928       35.11855
H         24.81769       34.45074       34.69458
H         23.70022       37.10243       34.53001
H         21.53787       36.01755       35.14888
H         22.24670       34.39189       34.79454
H         22.90250       35.39584       36.14560
N         23.29020       35.34030       31.75715
C         22.79233       35.37319       30.38869
C         21.28325       35.18841       30.38195
O         20.56414       36.07005       29.92931
C         23.26373       36.67042       29.68878
C         23.06515       36.64212       28.19392
O         23.39963       37.60610       27.52461
O         22.56382       35.55312       27.57732
H         23.98604       34.61801       31.96331
H         23.26235       34.52328       29.84291
H         24.35424       36.79722       29.86453
H         22.74053       37.54995       30.12241
N         20.73487       34.06354       30.91986
C         19.30188       33.88281       31.08777
C         18.73579       32.70303       30.33396
O         17.55282       32.44996       30.50425
H         21.36120       33.32465       31.27787
H         18.73349       34.78272       30.77246
H         19.11010       33.72977       32.17208
N         19.49204       31.92981       29.49942
C         18.96170       30.74928       28.81564
C         19.68008       29.52694       29.38416
O         20.65587       29.71404       30.09870
C         19.15614       30.95536       27.29011
C         18.38232       30.05195       26.35597
N         18.52991       30.19608       25.01791
O         17.59420       29.22473       26.78183
H         20.48766       32.15573       29.35834
H         17.87789       30.64881       29.03613
H         20.24206       30.89719       27.05749
H         18.81134       31.98319       27.04051
H         19.17443       30.90167       24.63174
H         17.99388       29.60566       24.36422
N         19.23387       28.25150       29.18038
C         19.89552       27.10126       29.78109
C         20.41395       26.14699       28.74106
O         20.09551       26.27695       27.56809
H         18.38980       28.07680       28.62634
H         19.19889       26.56846       30.46269
H         20.76663       27.42006       30.39054
N         21.29536       25.18100       29.12462
C         21.92265       24.24374       28.19788
C         22.55013       24.95979       27.00893
O         22.35518       24.50029       25.89168
C         22.95662       23.31251       28.90256
C         24.09947       24.02783       29.64469
O         22.31144       22.41173       29.76876
H         21.56018       25.15182       30.11966
H         21.13793       23.57173       27.78396
H         23.42599       22.69987       28.10168
H         21.92754       22.92767       30.52350
H         24.83914       23.27884       29.99856
H         24.63148       24.72672       28.97925
H         23.72783       24.58448       30.53011
N         23.27845       26.10140       27.16232
C         23.89924       26.81398       26.04648
C         23.31799       28.20424       25.88637
O         22.44125       28.58612       26.65225
C         25.45045       26.81495       26.20714
C         25.99431       27.32656       27.57042
C         25.97060       25.38842       25.96832
C         25.59850       28.75269       27.94303
H         23.38756       26.49346       28.10989
H         23.66798       26.31604       25.07842
H         25.89504       27.43891       25.40407
H         27.10453       27.29444       27.52512
H         25.67921       26.65710       28.39417
H         27.07966       25.36925       25.99990
H         25.57734       24.68657       26.73301
H         25.65391       25.02790       24.96533
H         25.91204       29.46027       27.15034
H         24.50948       28.83336       28.12323
H         26.10157       29.03402       28.89203
N         23.75975       29.01529       24.87916
C         23.24151       30.35335       24.65270
C         22.66904       30.43916       23.23607
O         22.87577       31.42551       22.54840
C         24.38874       31.35506       24.93531
C         23.94642       32.78518       24.94291
O         22.78797       33.08049       24.69459
O         24.82071       33.77382       25.18938
H         24.49492       28.67795       24.23896
H         22.41586       30.56324       25.36543
H         25.20024       31.21601       24.18296
H         24.81058       31.14598       25.93876
N         21.96510       29.38876       22.72634
C         21.45307       29.31527       21.35615
C         22.57349       29.52183       20.32936
O         23.50924       28.73337       20.32341
C         20.78506       27.92515       21.15738
C         20.50004       27.55724       19.71711
C         19.66057       28.33783       18.90785
C         21.10123       26.40676       19.16969
C         19.44806       27.98622       17.56900
C         20.87703       26.05280       17.83866
C         20.05621       26.84549       17.03566
H         21.82325       28.57293       23.34112
H         20.67413       30.09079       21.22114
H         19.85124       27.88218       21.75912
H         21.47446       27.15441       21.56886
H         19.18026       29.21923       19.30826
H         21.74765       25.77989       19.77220
H         18.81266       28.59791       16.94259
H         21.34502       25.16559       17.43086
H         19.89129       26.57289       16.00137
N         22.53275       30.53307       19.39622
C         23.49371       30.68657       18.31230
C         24.75195       31.43852       18.72937
O         25.56317       31.71528       17.85715
C         22.69857       31.49379       17.27820
C         21.93287       32.44934       18.16640
C         21.46426       31.51301       19.27662
H         23.77125       29.71314       17.84899
H         23.30299       31.96328       16.47223
H         21.95234       30.81743       16.79890
H         22.66701       33.17236       18.58915
H         21.11946       33.02198       17.67292
H         21.29551       32.09469       20.20786
H         20.53705       30.99286       18.96928
N         24.99895       31.78289       20.02728
C         26.20343       32.48082       20.45041
C         27.16413       31.53714       21.16322
O         28.24299       31.98833       21.52507
C         25.87501       33.67377       21.38037
C         24.95047       34.74997       20.77602
C         25.03697       36.01519       21.60046
O         26.11685       36.57183       21.71584
O         23.99288       36.51858       22.28295
H         24.34833       31.49025       20.75729
H         26.74980       32.87297       19.56486
H         26.85132       34.14758       21.62154
H         25.42649       33.31310       22.33345
H         23.90934       34.36149       20.71871
H         25.29005       35.01336       19.75295
N         26.86707       30.22243       21.38766
C         27.77508       29.30419       22.04507
H         28.73156       29.78598       22.33788
H         27.29150       28.90064       22.95887
H         28.00649       28.46414       21.35720
H         25.96537       29.82973       21.08481
Ca        23.92193       35.60642       24.30862
O         25.10020       38.76993       24.56003
H         24.92275       38.47424       23.63321
H         25.84731       39.41276       24.46963
O         26.34079       36.06582       27.06447
H         26.39502       36.79596       27.73123
H         27.28060       35.78644       26.92562
O         21.21015       36.52736       25.00996
H         20.97174       35.62518       24.67849
H         20.80466       36.57578       25.91150

Ca 1.0



