%chk=apoCaM-CA-Ng.loop2.water4.frame1429.chk
%nprocshared=20
%mem=10GB
%nosave
#b3lyp/svp scf=(tight,noincore,xqc) Test 
#IOP(5/87=12) Density=Current Pop=(MK,readradii) iop(6/33=2) iop(6/42=6)

apoCaM-CA-Ng.loop2.water4.frame1429 

   -2  1 
C         92.43796       84.66876       25.92223
C         92.12196       85.28602       24.58135
O         92.95684       85.12973       23.70186
H         93.38850       85.09984       26.29928
H         91.68484       84.79218       26.71407
H         92.57883       83.57595       25.78280
N         90.98270       85.97987       24.27456
C         89.85913       86.27283       25.17099
C         89.57452       87.77063       25.32200
O         88.91834       88.11677       26.29514
C         88.57849       85.52110       24.71903
C         88.11317       85.89070       23.33166
O         86.98288       85.39635       22.80508
O         88.74814       86.67467       22.65255
H         90.92331       86.29912       23.29907
H         90.07633       85.92017       26.18976
H         87.76060       85.74776       25.43838
H         88.76506       84.42666       24.74697
N         89.97218       88.70888       24.40609
C         89.73148       90.14079       24.58045
C         88.70941       90.71643       23.59783
O         88.44346       91.90630       23.70358
C         91.07198       90.87853       24.45442
H         90.46604       88.41798       23.55163
H         89.32863       90.34585       25.59584
H         91.50266       90.72873       23.43995
H         90.94446       91.96844       24.62710
H         91.79432       90.49072       25.20437
N         88.09415       89.96784       22.63002
C         87.13908       90.52415       21.66520
C         85.79798       89.79150       21.66959
O         85.64678       88.78081       22.34208
C         87.78284       90.50521       20.25992
C         88.10134       89.10765       19.79409
O         87.10754       88.24488       19.50122
O         89.26318       88.74928       19.69028
H         88.34070       88.97978       22.53409
H         86.92562       91.58540       21.91710
H         88.72448       91.09428       20.32406
H         87.12981       90.99846       19.50952
N         84.76430       90.28902       20.92823
C         83.44700       89.67425       20.81302
C         83.43882       88.47283       19.89111
O         84.48400       88.06962       19.40700
H         84.90393       91.18638       20.44041
H         82.76508       90.41501       20.34382
H         83.04069       89.42503       21.81752
N         82.26037       87.86066       19.57297
C         82.19602       86.70305       18.67897
C         82.64521       87.07102       17.26386
O         82.74023       88.25021       16.95058
C         80.75367       86.14182       18.64991
C         80.65995       84.78385       17.99926
N         79.91143       84.58873       16.88874
O         81.26197       83.84216       18.49381
H         81.39268       88.21763       20.00276
H         82.87558       85.93374       19.10584
H         80.09088       86.87730       18.14043
H         80.38383       86.02116       19.69088
H         79.39644       85.36598       16.45115
H         79.85050       83.65235       16.46107
N         82.96842       86.09939       16.36381
C         83.37352       86.36981       14.99078
C         84.85379       86.10112       14.79366
O         85.53533       85.82573       15.76928
H         82.96003       85.11391       16.66638
H         83.17670       87.42436       14.70307
H         82.76674       85.71360       14.32800
N         85.45807       86.13565       13.56910
C         84.76188       86.37035       12.30779
C         84.54511       85.06184       11.56110
O         83.71587       85.04332       10.66255
C         85.52645       87.39167       11.42910
C         85.61586       88.76513       12.09607
O         86.83118       86.93586       11.16893
H         86.46361       85.90550       13.52973
H         83.74522       86.76808       12.50471
H         84.98170       87.54276       10.46743
H         86.77029       86.27107       10.43452
H         84.59874       89.17279       12.27515
H         86.15962       88.70300       13.06241
H         86.16334       89.46771       11.43076
N         85.23663       83.92562       11.87244
C         84.94801       82.62957       11.26902
C         83.69069       82.08036       11.93454
O         83.65304       82.08957       13.15795
C         86.14674       81.65429       11.45059
C         87.38377       82.22081       10.69489
C         85.77062       80.25868       10.91920
C         88.63976       81.35595       10.79754
H         85.98085       83.96229       12.58213
H         84.83602       82.76739       10.17747
H         86.38439       81.55428       12.53313
H         87.64088       83.21995       11.10630
H         87.13981       82.35033        9.61680
H         86.59009       79.53552       11.09363
H         84.89041       79.84419       11.45163
H         85.52892       80.31753        9.83721
H         88.49202       80.37046       10.31332
H         89.47377       81.86079       10.26527
H         88.92531       81.21235       11.85982
N         82.60586       81.59736       11.25964
C         82.49596       81.39062        9.81750
C         81.99316       79.98196        9.49378
O         81.10347       79.48170       10.16556
C         81.62653       82.48708        9.17899
C         80.31019       82.71710        9.86593
O         80.06964       83.80749       10.36085
O         79.38932       81.73944        9.93625
H         81.78109       81.34412       11.82732
H         83.46894       81.48909        9.30807
H         81.46407       82.25296        8.10427
H         82.20524       83.43556        9.22357
N         82.52385       79.30622        8.42900
C         82.09725       77.98079        7.96361
C         82.97125       77.56079        6.78140
O         83.05479       78.33510        5.83776
C         80.59717       77.97795        7.53804
C         80.16823       76.66736        6.89499
C         80.42371       76.43601        5.52865
C         79.51799       75.66633        7.63988
C         80.05269       75.23149        4.92629
C         79.15419       74.45638        7.03231
C         79.42373       74.23926        5.67820
H         83.26922       79.78249        7.89876
H         82.20303       77.25327        8.78859
H         80.37081       78.80574        6.83128
H         79.97192       78.15630        8.43753
H         80.91003       77.18935        4.92405
H         79.30643       75.81261        8.69099
H         80.25959       75.06633        3.87619
H         78.66542       73.68277        7.61038
H         79.14491       73.30357        5.20956
N         83.59056       76.33449        6.70253
C         83.44563       75.24131        7.65876
C         84.25350       75.47975        8.91570
O         83.70009       75.51155       10.00484
C         83.95139       74.00129        6.89393
C         83.75277       74.41245        5.44161
C         84.22054       75.85726        5.49049
H         82.36199       75.09712        7.86144
H         85.04875       73.87657        7.01642
H         83.47099       73.04771        7.19895
H         84.29440       73.77993        4.70746
H         82.66783       74.40332        5.20680
H         85.32513       75.87869        5.63125
H         83.96711       76.43409        4.57606
N         85.59249       75.70118        8.80392
C         86.44772       76.06894        9.91725
C         86.81421       74.81547       10.71089
O         87.48932       73.97268       10.13545
C         87.73466       76.75285        9.37831
C         87.41447       77.94530        8.44466
C         88.63472       78.64983        7.92730
O         88.50015       79.60015        7.17293
O         89.87341       78.24799        8.27102
H         86.00398       75.68207        7.86259
H         85.92893       76.84811       10.50413
H         88.34041       76.02046        8.80033
H         88.33754       77.10819       10.24330
H         86.78827       78.67238        8.98111
H         86.84470       77.61139        7.55466
N         86.44279       74.55872       12.00141
C         85.58753       75.37133       12.84162
H         84.70937       74.76223       13.14570
H         86.14271       75.66612       13.75594
H         85.20275       76.28005       12.35560
H         86.77897       73.68002       12.42749
Ca        86.68870       86.47671       20.84637
O         83.94775       85.41864       21.61068
H         83.37728       86.03548       22.13440
H         84.15243       84.67676       22.23347
O         86.66436       83.18761       20.64512
H         86.67461       82.64484       21.47286
H         87.50951       82.95615       20.18425
O         85.54230       85.06616       18.51940
H         86.31563       84.63734       18.07381
H         84.86038       84.35126       18.57804
O         89.18331       85.27496       19.50393
H         89.52155       86.16762       19.24389
H         89.04516       84.80451       18.64403

Ca 1.0



