%chk=apoCaM-CA-Ng.loop2.water4.frame1016.chk
%nprocshared=20
%mem=10GB
%nosave
#b3lyp/svp scf=(tight,noincore,xqc) Test 
#IOP(5/87=12) Density=Current Pop=(MK,readradii) iop(6/33=2) iop(6/42=6)

apoCaM-CA-Ng.loop2.water4.frame1016 

   -2  1 
C         50.95274       42.90787       48.87075
C         49.87118       42.49689       49.83439
O         50.06466       41.51526       50.53635
H         51.82488       42.22328       48.94372
H         50.57617       42.87891       47.82755
H         51.29881       43.93427       49.11818
N         48.70413       43.19146       49.97458
C         48.33800       44.36747       49.18921
C         46.98730       44.13152       48.51461
O         46.77563       43.01573       48.06082
C         48.44351       45.64175       50.05942
C         47.55714       45.62802       51.27454
O         47.76413       44.72542       52.25238
O         46.68484       46.47089       51.40877
H         48.03516       42.86035       50.68591
H         49.06055       44.51285       48.36234
H         48.23041       46.53510       49.43657
H         49.49117       45.74873       50.41351
N         46.04490       45.12022       48.36530
C         44.75669       44.93888       47.69339
C         43.82818       43.98792       48.43658
O         42.79235       43.64645       47.88153
C         44.96077       44.48054       46.23429
H         46.24080       46.06947       48.70553
H         44.23813       45.92196       47.63981
H         43.98550       44.44680       45.70266
H         45.61864       45.19424       45.69580
H         45.40212       43.46625       46.16521
N         44.11609       43.52103       49.68808
C         43.33974       42.47370       50.33974
C         42.64436       42.94505       51.60078
O         42.65650       44.13026       51.89961
C         44.26510       41.25155       50.54622
C         45.46061       41.32238       51.48030
O         46.18357       40.33991       51.51736
O         45.79199       42.36028       52.28339
H         44.94770       43.86824       50.18562
H         42.52443       42.11813       49.67336
H         44.66087       40.99539       49.53881
H         43.65906       40.38142       50.86844
N         42.01424       42.03947       52.40026
C         41.47670       42.35783       53.70489
C         42.50661       41.94228       54.72013
O         43.58343       42.52171       54.71422
H         42.03158       41.04274       52.14529
H         40.50853       41.82680       53.83504
H         41.28194       43.44580       53.82686
N         42.27020       40.93540       55.60555
C         43.26107       40.50436       56.58965
C         43.64954       39.03971       56.43439
O         44.47587       38.59053       57.21905
C         42.68559       40.70276       58.00427
C         42.32196       42.13746       58.27737
N         41.04332       42.48286       58.55533
O         43.19171       42.99481       58.25765
H         41.35228       40.46464       55.59078
H         44.19626       41.10147       56.49987
H         43.43124       40.38775       58.76657
H         41.78852       40.05422       58.11479
H         40.29652       41.77294       58.57754
H         40.79683       43.46441       58.74872
N         43.09062       38.21146       55.50316
C         43.36968       36.78051       55.53783
C         42.62577       35.97584       54.48348
O         42.00802       36.56255       53.60634
H         42.41389       38.58556       54.82438
H         43.05213       36.43430       56.54073
H         44.46019       36.59740       55.41157
N         42.63508       34.60728       54.47149
C         43.20819       33.76750       55.52151
C         44.61928       33.34767       55.16756
O         45.53308       33.70443       55.89778
C         42.29125       32.54182       55.77852
C         42.83308       31.62414       56.88246
O         41.01264       32.99526       56.14470
H         42.12407       34.13376       53.70912
H         43.24806       34.32316       56.47917
H         42.22315       31.94974       54.83545
H         40.36135       32.30916       55.84135
H         42.14970       30.75941       57.01993
H         43.83247       31.22457       56.61065
H         42.91257       32.17510       57.84312
N         44.86490       32.54153       54.09430
C         46.18072       32.00005       53.76198
C         46.68871       31.16164       54.94712
O         47.56330       31.62417       55.66681
C         47.19538       33.10391       53.32590
C         46.56236       34.06635       52.28748
C         48.45211       32.41324       52.74604
C         47.50686       35.18312       51.83503
H         44.07247       32.25674       53.49964
H         46.05996       31.35416       52.86794
H         47.48776       33.71330       54.20849
H         45.68174       34.56127       52.75108
H         46.21326       33.50156       51.39729
H         49.24176       33.14478       52.48931
H         48.90076       31.70985       53.47644
H         48.18664       31.83624       51.83225
H         46.96391       35.87710       51.16029
H         47.87700       35.75575       52.71225
H         48.36882       34.77760       51.26770
N         46.15662       29.94759       55.27794
C         45.19112       29.23526       54.44927
C         45.83675       28.77882       53.14656
O         47.05360       28.83821       53.01959
C         44.58918       28.01485       55.18928
C         45.58350       26.91265       55.47797
O         46.64140       27.12536       56.28336
O         45.41858       25.80439       54.99363
H         46.47557       29.51922       56.15862
H         44.35129       29.93013       54.23647
H         43.77350       27.59408       54.56092
H         44.13137       28.35094       56.14450
N         45.06522       28.32851       52.12067
C         45.62494       27.85837       50.85622
C         44.50289       27.72525       49.82702
O         43.52654       27.05465       50.13926
C         46.33523       26.49506       51.04341
C         47.08033       26.10745       49.78597
C         46.64422       25.03510       48.99086
C         48.21590       26.83889       49.38784
C         47.31862       24.71703       47.80657
C         48.88678       26.51662       48.20494
C         48.43581       25.45909       47.41237
H         44.04068       28.36777       52.23879
H         46.37959       28.58938       50.51783
H         45.56959       25.73382       51.31037
H         47.07100       26.52525       51.87480
H         45.77305       24.45906       49.27511
H         48.57234       27.66867       49.98605
H         46.97087       23.89906       47.18938
H         49.75141       27.09233       47.89947
H         48.95179       25.21560       46.49248
N         44.54796       28.28683       48.57561
C         45.70237       28.93879       47.97202
C         45.84315       30.39862       48.41202
O         45.73525       30.66674       49.59948
C         45.45245       28.68654       46.47189
C         43.95039       28.86162       46.38099
C         43.48976       28.07942       47.60506
H         46.64014       28.42460       48.22526
H         46.06108       29.25104       45.74113
H         45.65807       27.60943       46.26582
H         43.72638       29.93984       46.53304
H         43.47882       28.52757       45.43263
H         42.49839       28.44040       47.95506
H         43.43790       26.99017       47.37983
N         46.18832       31.38520       47.53044
C         46.43169       32.76296       47.92396
C         47.84169       33.27296       47.55857
O         47.99409       34.48679       47.58946
C         45.35818       33.64034       47.24040
C         43.93837       33.23456       47.66610
C         42.91225       34.12720       47.03413
O         42.05991       33.65820       46.29699
O         42.91792       35.44957       47.28951
H         46.30069       31.17874       46.53087
H         46.31131       32.91432       49.01807
H         45.45491       33.56010       46.13428
H         45.51414       34.70237       47.53210
H         43.84200       33.30755       48.77088
H         43.74201       32.18368       47.36629
N         48.94211       32.52494       47.21585
C         49.12676       31.08661       47.25499
H         50.01744       30.86423       47.88063
H         48.31555       30.52406       47.72043
H         49.31647       30.70285       46.23136
H         49.78707       33.04695       46.93283
Ca        45.04650       44.39836       52.92170
O         46.93170       46.68220       54.77505
H         47.86476       46.72399       54.44638
H         46.67533       47.62813       54.91603
O         43.68658       47.05743       53.52884
H         43.54570       47.95485       53.92227
H         43.69514       47.21207       52.55069
O         44.63278       45.20966       56.36806
H         45.08555       45.52061       57.19202
H         43.69648       45.04677       56.64480
O         46.99484       43.27714       55.48579
H         46.75370       42.34324       55.70990
H         47.28354       43.67251       56.34662

Ca 1.0



