%chk=apoCaM-CA-Ng.loop2.water3.frame614.chk
%nprocshared=20
%mem=10GB
%nosave
#b3lyp/svp scf=(tight,noincore,xqc) Test 
#IOP(5/87=12) Density=Current Pop=(MK,readradii) iop(6/33=2) iop(6/42=6)

apoCaM-CA-Ng.loop2.water3.frame614 

   -2  1 
C         69.81610       29.20819       80.35374
C         69.83975       30.40128       81.26447
O         69.04116       31.30591       81.06697
H         70.59463       28.46732       80.63240
H         68.82248       28.71643       80.40701
H         70.00267       29.53760       79.30961
N         70.74387       30.48234       82.28197
C         70.82813       31.63667       83.16937
C         69.54162       31.78846       83.96111
O         69.22558       30.91305       84.75348
C         72.03382       31.48354       84.12230
C         72.20105       32.66870       85.03144
O         72.15122       32.50482       86.36723
O         72.39419       33.78040       84.56595
H         71.41297       29.70647       82.40709
H         71.00140       32.53888       82.54098
H         72.96231       31.36961       83.52165
H         71.90774       30.56415       84.73665
N         68.74764       32.88484       83.79201
C         67.50582       33.08361       84.53664
C         66.50394       31.97731       84.23745
O         66.60249       31.38189       83.17293
C         66.88256       34.43264       84.15061
H         69.04528       33.60496       83.11533
H         67.76354       33.09775       85.61264
H         66.63965       34.44413       83.06487
H         65.94970       34.62999       84.71335
H         67.59573       35.25653       84.36182
N         65.47410       31.64478       85.07245
C         65.22078       32.21537       86.39456
C         66.31885       31.88304       87.39093
O         66.72308       30.73314       87.47999
C         63.85399       31.74081       86.96126
C         63.65908       30.25396       87.15986
O         64.51228       29.44310       86.84065
O         62.50304       29.81270       87.69032
H         64.81864       30.92441       84.73028
H         65.11767       33.31638       86.31365
H         63.04916       32.09290       86.28118
H         63.70253       32.23678       87.94581
N         66.76108       32.82937       88.26716
C         67.64442       32.49310       89.37137
C         69.08396       32.28930       88.94949
O         69.41400       32.61323       87.81758
H         66.35850       33.77854       88.23275
H         67.22144       31.60941       89.87855
H         67.64543       33.33028       90.09681
N         70.04615       31.83184       89.80867
C         69.81086       31.28707       91.14894
C         70.44956       29.89709       91.31966
O         70.35420       29.35718       92.41326
C         70.41215       32.23389       92.21142
C         69.78084       33.60351       92.20573
N         68.46658       33.76463       92.48977
O         70.47061       34.58231       91.96375
H         71.02403       31.86863       89.48031
H         68.73090       31.18170       91.36212
H         71.50689       32.32392       92.03584
H         70.26174       31.80728       93.22797
H         67.86789       32.95512       92.70872
H         68.04332       34.70470       92.49085
N         71.16495       29.27977       90.32763
C         71.96756       28.08121       90.54670
C         71.22141       26.79261       90.84152
O         71.90055       25.81295       91.11427
H         71.25791       29.72161       89.40498
H         72.66157       28.28799       91.39086
H         72.59121       27.89506       89.64524
N         69.86264       26.68738       90.80520
C         69.14561       25.45318       91.14633
C         68.36955       24.91560       89.94882
O         68.45777       25.48559       88.87006
C         68.24006       25.70961       92.37576
C         69.07935       26.07531       93.60608
O         67.32288       26.73361       92.09303
H         69.30639       27.51172       90.54332
H         69.85312       24.64169       91.42648
H         67.69260       24.77482       92.62590
H         66.59665       26.66542       92.76621
H         69.65310       27.00869       93.43757
H         68.41835       26.21983       94.48589
H         69.79200       25.25400       93.83732
N         67.59905       23.79130       90.07413
C         66.88150       23.16304       88.97054
C         65.38715       23.36562       89.16286
O         64.82686       22.89867       90.14472
C         67.21453       21.63860       88.90462
C         66.40270       20.92163       87.78660
C         68.72718       21.42269       88.70744
C         66.47293       19.39488       87.87188
H         67.50993       23.34530       90.99793
H         67.18146       23.62466       88.00322
H         66.92007       21.19350       89.88168
H         66.73731       21.26704       86.78422
H         65.32464       21.16360       87.88664
H         69.30365       21.90880       89.52165
H         68.98748       20.34578       88.73369
H         69.05697       21.84744       87.73489
H         67.50303       19.01447       87.73234
H         66.08628       19.05527       88.85770
H         65.83316       18.95168       87.07930
N         64.68083       24.02267       88.20445
C         63.23597       24.18312       88.17956
C         62.63675       23.50608       86.94621
O         61.42219       23.55589       86.80702
C         62.90190       25.68251       88.16285
C         63.32288       26.37302       89.42861
O         62.74304       26.13824       90.47720
O         64.33365       27.26168       89.41106
H         65.19695       24.41812       87.41484
H         62.76539       23.71180       89.07102
H         61.80909       25.84761       88.04194
H         63.41170       26.14644       87.29097
N         63.39972       22.81638       86.03844
C         62.83362       22.06206       84.92712
C         63.51451       22.45981       83.61174
O         64.11715       21.60026       82.98170
C         63.04219       20.56482       85.26795
C         62.29799       19.60367       84.37451
C         62.99491       18.68721       83.56843
C         60.89205       19.58170       84.38068
C         62.29491       17.76716       82.78094
C         60.19687       18.65514       83.59799
C         60.89753       17.74853       82.79868
H         64.41759       22.73739       86.16845
H         61.74222       22.24887       84.84130
H         62.68090       20.37303       86.30221
H         64.13502       20.35145       85.26514
H         64.07772       18.68081       83.55187
H         60.33454       20.26740       85.00660
H         62.83596       17.06242       82.16297
H         59.11473       18.63457       83.61782
H         60.35762       17.02862       82.19714
N         63.48811       23.74044       83.11714
C         64.13413       24.14148       81.86906
C         65.63477       23.89310       81.80162
O         66.20352       24.06191       80.73161
C         63.90370       25.65762       81.81461
C         62.58017       25.80234       82.52657
C         62.74614       24.83672       83.70099
H         63.61390       23.59930       81.04765
H         64.65426       26.16692       82.46576
H         63.96604       26.10223       80.79792
H         62.30871       26.84032       82.81442
H         61.79702       25.40060       81.84400
H         63.35229       25.27661       84.52326
H         61.73651       24.54643       84.05983
N         66.35492       23.57031       82.91323
C         67.79139       23.36144       82.89132
C         68.06806       21.99537       82.30265
O         68.76265       21.90544       81.29984
C         68.42866       23.45560       84.30129
C         68.55555       24.87758       84.90368
C         67.32490       25.51478       85.48699
O         67.46478       26.63252       86.22111
O         66.23446       24.98592       85.42497
H         65.86880       23.46777       83.80636
H         68.28508       24.14649       82.27419
H         69.48224       23.11865       84.17744
H         67.94665       22.76268       85.02539
H         69.02934       25.56804       84.17404
H         69.24639       24.77489       85.76855
N         67.55112       20.87839       82.88681
C         67.80336       19.55082       82.37316
H         68.89254       19.33482       82.40411
H         67.27416       18.79840       82.99623
H         67.43644       19.47035       81.32826
H         66.95652       20.97052       83.72475
Ca        65.94630       27.02560       87.84360
O         69.47068       28.84653       87.47138
H         70.42716       28.95010       87.23893
H         69.06460       29.71021       87.21265
O         67.26439       29.10422       89.97837
H         66.60392       29.41101       90.64869
H         67.09377       28.13535       89.89214
O         67.16443       28.94905       84.77688
H         66.47581       28.66299       84.12650
H         68.01065       28.57503       84.42369

Ca 1.0



