%chk=apoCaM-CA-Ng.loop2.water6.frame1388.chk
%nprocshared=20
%mem=10GB
%nosave
#b3lyp/svp scf=(tight,noincore,xqc) Test 
#IOP(5/87=12) Density=Current Pop=(MK,readradii) iop(6/33=2) iop(6/42=6)

apoCaM-CA-Ng.loop2.water6.frame1388 

   -2  1 
C         11.24619       79.15520       40.45449
C         11.76524       78.06936       41.36137
O         12.82472       78.25912       41.94034
H         10.26360       79.52709       40.79789
H         11.94678       80.01748       40.44340
H         11.16037       78.77610       39.41484
N         11.12496       76.87623       41.53197
C          9.87582       76.50849       40.87322
C          9.78982       74.98918       40.75266
O          8.79898       74.39683       41.15645
C          8.64937       77.12188       41.61521
C          8.55388       76.61576       43.03372
O          7.61795       75.91036       43.37406
O          9.54020       76.88156       43.90961
H         11.59442       76.16558       42.11663
H          9.89944       76.87176       39.82388
H          7.72771       76.84462       41.05759
H          8.69878       78.22654       41.63993
N         10.82127       74.29387       40.18988
C         10.82078       72.84588       40.03279
C         11.93112       72.22517       40.86541
O         12.81500       71.56894       40.33117
C         10.92912       72.49500       38.54610
H         11.65077       74.81258       39.86217
H          9.86680       72.40301       40.39636
H         10.89801       71.39193       38.41228
H         10.07175       72.93555       37.99391
H         11.87488       72.88797       38.11703
N         11.88568       72.34786       42.22021
C         12.78870       71.65861       43.14252
C         12.01636       70.57558       43.87508
O         10.82545       70.42221       43.63582
C         13.50621       72.65909       44.08107
C         12.60570       73.72986       44.63158
O         12.83878       74.89469       44.34713
O         11.50111       73.44956       45.34830
H         11.10627       72.88822       42.62509
H         13.57983       71.10724       42.58894
H         14.28587       73.17583       43.47773
H         14.03100       72.12779       44.90181
N         12.65597       69.71064       44.71573
C         11.98908       68.54334       45.27219
C         10.82017       68.88755       46.16118
O         10.60762       70.04978       46.47285
H         13.66360       69.82787       44.89905
H         12.70952       67.92349       45.84822
H         11.61556       67.93234       44.42154
N          9.98396       67.89259       46.56868
C          8.77639       68.12186       47.35499
C          8.78621       67.34832       48.66747
O          7.83238       67.48770       49.42084
C          7.55372       67.71133       46.51031
C          7.46760       68.51988       45.23752
N          7.54606       67.91969       44.02666
O          7.32581       69.73182       45.30211
H         10.18144       66.92950       46.25298
H          8.67675       69.19803       47.61703
H          6.61629       67.87073       47.08573
H          7.62913       66.62706       46.27168
H          7.66952       66.89996       43.94663
H          7.48866       68.47884       43.16240
N          9.81238       66.51821       49.01559
C          9.85413       65.76289       50.25768
C          9.89009       64.27505       49.98077
O          9.77296       63.88255       48.82792
H         10.61781       66.39727       48.38594
H          8.98346       65.98114       50.91184
H         10.78188       66.05690       50.79383
N         10.09474       63.35300       50.96458
C         10.31126       63.66306       52.37545
C         11.78909       63.49586       52.74503
O         12.12901       63.67382       53.90617
C          9.37040       62.80385       53.25284
C          7.89495       63.07470       52.91801
O          9.65892       61.44153       53.07156
H         10.17091       62.36260       50.68140
H         10.07286       64.72470       52.59531
H          9.54483       63.08537       54.31775
H          9.22842       60.95501       53.82267
H          7.66837       62.79870       51.86603
H          7.23758       62.47576       53.58347
H          7.65484       64.14926       53.06646
N         12.73357       63.27257       51.78044
C         14.17833       63.30826       51.99272
C         14.66270       64.68490       51.53423
O         14.22318       65.12670       50.48138
C         14.84956       62.14125       51.19979
C         14.55237       60.80101       51.92313
C         16.36895       62.35099       51.02885
C         15.08063       59.56205       51.19725
H         12.43638       63.21546       50.79688
H         14.40224       63.18779       53.06809
H         14.42275       62.12340       50.17197
H         13.45401       60.67974       52.03790
H         15.00357       60.82669       52.94082
H         16.80983       61.56628       50.38356
H         16.57943       63.30843       50.50763
H         16.88557       62.34451       52.00587
H         16.18590       59.57787       51.10987
H         14.81395       58.65528       51.78015
H         14.62769       59.48608       50.18726
N         15.52507       65.46681       52.25815
C         16.28418       65.04287       53.43377
C         17.75538       65.42707       53.28056
O         18.06542       66.60641       53.18445
C         15.66755       65.58323       54.74019
C         15.59337       67.08043       54.83196
O         14.91162       67.71613       54.04454
O         16.24849       67.72501       55.81610
H         15.70019       66.42242       51.90979
H         16.25268       63.94622       53.54487
H         16.27137       65.19641       55.59160
H         14.63900       65.17483       54.84995
N         18.71595       64.45840       53.27274
C         20.15597       64.69723       53.21870
C         20.76485       63.97448       52.01384
O         20.45960       62.80111       51.83988
C         20.78101       64.12008       54.51249
C         22.29389       64.16997       54.50471
C         23.01877       63.03475       54.09964
C         22.99276       65.33435       54.86850
C         24.41293       63.06508       54.04508
C         24.39302       65.35698       54.82119
C         25.10087       64.22460       54.40622
H         18.41605       63.47545       53.35505
H         20.38553       65.77908       53.19435
H         20.46718       63.05684       54.60119
H         20.38603       64.63605       55.41523
H         22.50114       62.13033       53.80533
H         22.45723       66.22148       55.18236
H         24.95784       62.18902       53.71771
H         24.93189       66.25322       55.10008
H         26.18223       64.24408       54.36195
N         21.73536       64.53298       51.21791
C         22.29251       65.86382       51.37736
C         21.34705       66.94927       50.88649
O         20.97942       67.78655       51.69984
C         23.65753       65.76793       50.67874
C         23.43799       64.74244       49.58178
C         22.48336       63.75071       50.24741
H         22.52315       66.08159       52.43708
H         24.12416       66.73131       50.38207
H         24.34899       65.26850       51.39752
H         22.93320       65.22858       48.73575
H         24.35973       64.28349       49.16496
H         21.83984       63.25589       49.48851
H         23.06025       62.98455       50.81204
N         20.92819       67.03437       49.59160
C         20.04912       68.08704       49.11030
C         20.87411       69.04585       48.26444
O         21.37587       68.62703       47.23040
C         18.90210       67.48210       48.27400
C         18.05325       66.47800       49.06784
C         16.99529       65.87028       48.19078
O         16.98459       64.54157       47.96960
O         16.14391       66.57442       47.67143
H         21.25839       66.36288       48.89559
H         19.59460       68.62576       49.96421
H         19.33594       66.95511       47.39383
H         18.25140       68.30395       47.90137
H         17.57174       66.98389       49.93149
H         18.70255       65.66190       49.45334
N         21.10706       70.34099       48.62551
C         20.62497       70.93907       49.85235
H         19.51526       70.93448       49.87485
H         21.02738       70.38571       50.72793
H         20.97309       71.99127       49.92228
H         21.68444       70.92950       48.00492
Ca        10.19911       75.29383       45.37158
O          7.60209       75.15362       48.12040
H          7.35173       74.48994       48.81131
H          7.13057       75.98182       48.38861
O          8.90090       72.55832       46.94928
H          9.78947       72.36477       47.33848
H          8.45772       71.67555       46.88977
O          9.43329       77.64954       47.10799
H          9.14546       77.84500       48.03476
H          9.25706       78.48619       46.60890
O          6.31050       73.61657       45.68752
H          6.23077       73.29817       44.75378
H          6.19027       72.80155       46.23668
O          8.87816       72.76463       44.00233
H          8.61198       71.86759       43.68223
H          8.33561       73.38712       43.46001
O         10.76489       74.54277       48.56710
H         10.78436       75.51596       48.74631
H         11.63064       74.35253       48.12576

Ca 1.0



