%chk=apoCaM-CA-Ng.loop2.water3.frame195.chk
%nprocshared=20
%mem=10GB
%nosave
#b3lyp/svp scf=(tight,noincore,xqc) Test 
#IOP(5/87=12) Density=Current Pop=(MK,readradii) iop(6/33=2) iop(6/42=6)

apoCaM-CA-Ng.loop2.water3.frame195 

   -2  1 
C         17.44810       27.64414       17.08734
C         18.72826       26.96487       16.69515
O         18.68196       26.03671       15.90115
H         16.76572       26.90672       17.56007
H         17.62973       28.46807       17.80972
H         16.95945       28.06763       16.18529
N         19.91518       27.37143       17.22652
C         21.19967       26.75955       16.90683
C         21.80992       26.07769       18.13358
O         22.91215       25.57325       18.01594
C         22.12184       27.85546       16.32973
C         23.43074       27.31518       15.82155
O         24.59144       27.75303       16.34541
O         23.44779       26.48486       14.92649
H         19.91355       28.15397       17.90022
H         21.07299       25.97400       16.12939
H         22.30993       28.62796       17.10759
H         21.60877       28.34460       15.47322
N         21.14281       26.00904       19.32638
C         21.59856       25.36396       20.55623
C         21.66009       23.81749       20.45626
O         21.35199       23.28530       21.71252
C         22.87047       25.99702       21.12707
H         20.21354       26.44636       19.39735
H         20.79326       25.56934       21.30145
H         23.73774       25.84572       20.45420
H         22.71427       27.08701       21.27021
H         23.10292       25.54328       22.11465
N         22.95250       23.25506       20.01887
C         22.87589       21.79885       19.77678
C         22.82640       21.47239       18.27937
O         23.53688       20.58275       17.82908
C         24.08662       21.12566       20.45978
C         24.20031       21.49011       21.91736
O         23.22444       21.16350       22.78356
O         25.18645       22.08510       22.32267
H         23.42921       23.74306       19.23744
H         21.95137       21.37945       20.23450
H         25.01395       21.45816       19.94203
H         24.01076       20.02048       20.37145
N         22.02096       22.18129       17.43813
C         21.91831       21.91107       16.01052
C         21.17579       20.61883       15.77145
O         21.69000       19.72275       15.11799
H         21.47302       22.96923       17.81290
H         22.92730       21.91296       15.53988
H         21.32228       22.72057       15.53720
N         19.94280       20.46523       16.32308
C         19.14500       19.24647       16.24692
C         18.43679       19.10386       14.91039
O         17.76287       20.02725       14.48395
C         18.09651       19.25476       17.37565
C         18.76482       19.23955       18.73008
N         19.54234       18.19619       19.10727
O         18.60198       20.17732       19.49376
H         19.59350       21.23926       16.91069
H         19.79441       18.36216       16.42326
H         17.44829       18.35545       17.30154
H         17.45465       20.15893       17.27546
H         19.68610       17.38800       18.48478
H         20.00003       18.18969       20.02987
N         18.49802       17.92464       14.23141
C         17.79823       17.64437       12.98463
C         16.28626       17.66823       13.12631
O         15.76345       17.02652       14.02697
H         19.06524       17.15985       14.62785
H         18.06522       16.61014       12.67714
H         18.14335       18.33184       12.18355
N         15.51377       18.32541       12.20812
C         14.04617       18.28551       12.21756
C         13.44110       19.28559       13.19946
O         12.22416       19.35136       13.29861
C         13.46354       18.49466       10.78791
C         13.64848       19.90792       10.20852
O         13.96783       17.52199        9.90514
H         15.99535       18.78961       11.42489
H         13.72367       17.26163       12.51214
H         12.36415       18.33314       10.84448
H         14.90138       17.76642        9.67414
H         13.13470       20.65513       10.84616
H         14.71901       20.18058       10.11745
H         13.18583       19.95608        9.19954
N         14.23411       20.10513       13.94291
C         13.74629       21.12872       14.85976
C         14.18438       20.78767       16.27329
O         14.90095       19.81443       16.46229
C         14.30347       22.53299       14.42463
C         15.86296       22.56760       14.41775
C         13.73539       22.92244       13.05014
C         16.48096       23.93052       14.11399
H         15.24952       20.00234       13.86948
H         12.63439       21.16613       14.86059
H         13.94304       23.29186       15.15220
H         16.26139       21.87194       13.65406
H         16.23751       22.25737       15.41637
H         14.03518       23.95215       12.76918
H         14.09670       22.22579       12.26718
H         12.62560       22.90103       13.07354
H         16.14380       24.68660       14.85169
H         17.58791       23.84163       14.17325
H         16.23365       24.26455       13.08619
N         13.83108       21.59440       17.31344
C         14.42739       21.47510       18.63706
C         13.38166       21.28720       19.74818
O         13.75629       21.29734       20.91208
C         15.31671       22.72599       18.79530
C         16.31602       22.67431       19.91263
O         17.09409       23.60419       20.04514
O         16.40762       21.61110       20.73402
H         13.21305       22.40151       17.13630
H         15.11030       20.59887       18.67928
H         14.68587       23.63455       18.87077
H         15.92972       22.82453       17.87115
N         12.06692       21.03009       19.47343
C         11.07093       20.75725       20.51401
C         10.77733       22.01242       21.33110
O         10.39830       23.00287       20.72003
C          9.74223       20.28734       19.87172
C          8.69313       19.99024       20.92264
C          8.83741       18.89654       21.79467
C          7.56998       20.82538       21.05322
C          7.87961       18.65145       22.78462
C          6.61863       20.58037       22.04748
C          6.77334       19.49516       22.91322
H         11.76900       20.96069       18.48931
H         11.44504       19.92474       21.14465
H          9.90215       19.38001       19.24948
H          9.38293       21.09335       19.19413
H          9.69267       18.23749       21.71211
H          7.43985       21.67784       20.39863
H          7.99714       17.81059       23.45614
H          5.76380       21.23619       22.14978
H          6.03643       19.30931       23.68401
N         10.84850       22.05773       22.70292
C         10.46169       23.22568       23.48888
C         11.18394       24.49505       23.09068
O         10.68609       25.57823       23.36237
C         10.84258       22.83800       24.92213
C         10.60165       21.34696       24.90944
C         11.20139       20.94579       23.56315
H          9.36327       23.35269       23.36044
H         11.94050       22.97264       25.06615
H         10.30838       23.40750       25.71250
H         11.00345       20.78706       25.78035
H          9.49822       21.19142       24.86367
H         12.30943       20.85994       23.59785
H         10.74318       19.98287       23.27153
N         12.39691       24.42585       22.48328
C         13.14345       25.58832       22.03536
C         12.51213       26.11318       20.76138
O         12.13618       27.27613       20.71570
C         14.61917       25.19688       21.82715
C         15.24540       24.74117       23.16260
C         16.65357       24.25927       22.99925
O         17.52108       25.00800       22.57989
O         16.96909       22.99435       23.33827
H         12.81772       23.49679       22.33473
H         13.13793       26.37817       22.82037
H         15.19176       26.06399       21.43102
H         14.66935       24.37365       21.09223
H         14.65542       23.90674       23.59758
H         15.23276       25.58381       23.88615
N         12.33201       25.28908       19.69072
C         11.69824       25.72954       18.46699
H         10.66924       26.09018       18.68092
H         12.29024       26.54490       18.00124
H         11.63082       24.88239       17.75032
H         12.63031       24.30491       19.75235
Ca        19.29153       22.37364       21.42286
O         20.70673       19.46920       22.29802
H         20.69266       19.29929       23.27266
H         20.84607       20.44462       22.22405
O         17.69190       19.83905       23.18972
H         17.84403       19.02307       22.64980
H         18.17558       19.66991       24.03712
O         19.70213       22.13064       24.40954
H         20.68866       22.05173       24.43259
H         19.42955       22.15798       25.36066

Ca 1.0



