%chk=apoCaM-CA-Ng.loop4.water4.frame959.chk
%nprocshared=20
%mem=10GB
%nosave
#b3lyp/svp scf=(tight,noincore,xqc) Test 
#IOP(5/87=12) Density=Current Pop=(MK,readradii) iop(6/33=2) iop(6/42=6)

apoCaM-CA-Ng.loop4.water4.frame959 

   -3  1 
C         76.97070      109.61330       47.56033
C         77.37123      110.96670       47.05454
O         77.58093      111.10651       45.85866
H         76.02934      109.29926       47.06159
H         77.76974      108.87843       47.33034
H         76.80000      109.62367       48.65745
N         77.47613      112.02320       47.91122
C         77.81894      113.37868       47.49789
C         76.79557      113.88560       46.50378
O         77.14705      114.24404       45.38703
C         79.26285      113.47137       46.95661
C         80.26766      113.03064       47.97935
O         81.03200      112.11514       47.72780
O         80.34517      113.65560       49.17007
H         77.27393      111.87301       48.91167
H         77.76435      114.04386       48.38990
H         79.48413      114.52981       46.69763
H         79.37536      112.86363       46.03374
N         75.48795      113.95631       46.87515
C         74.43613      114.47136       46.01204
C         73.96328      115.76024       46.66208
O         73.44346      115.66863       47.76671
C         73.27585      113.42483       45.90272
C         73.75329      111.99862       45.51706
C         72.15429      113.90157       44.96365
C         74.42200      111.88823       44.15125
H         75.23296      113.67310       47.83505
H         74.84724      114.67101       45.00670
H         72.82595      113.31230       46.91471
H         72.88230      111.30718       45.53684
H         74.47234      111.63507       46.28223
H         71.74524      114.87540       45.30410
H         72.51754      114.01625       43.92355
H         71.32203      113.16565       44.95915
H         73.72879      112.17606       43.33486
H         75.32237      112.52781       44.12967
H         74.73531      110.83669       43.97815
N         74.15524      117.01300       46.15013
C         74.75153      117.38433       44.86286
C         75.01379      118.88937       44.87573
O         74.09547      119.64005       45.17911
C         73.80075      117.00518       43.70680
C         74.27911      117.51596       42.38051
O         74.32539      118.83681       42.15579
O         74.58661      116.74619       41.48956
H         73.85886      117.78326       46.77144
H         75.72889      116.87000       44.72366
H         72.78790      117.42237       43.88702
H         73.71227      115.90880       43.64348
N         76.24275      119.40210       44.56020
C         76.56724      120.80916       44.75388
C         76.84884      121.61781       43.50316
O         77.11935      122.79701       43.68399
H         76.99216      118.77066       44.23630
H         77.45786      120.86288       45.41887
H         75.74468      121.33356       45.28189
N         76.83520      121.11191       42.23049
C         77.17778      121.94759       41.07156
C         76.15822      121.95580       39.93099
O         76.36927      122.73581       39.01283
C         78.60672      121.60757       40.58980
C         78.86766      120.14472       40.35023
O         78.27052      119.53140       39.48612
O         79.79453      119.50543       41.08912
H         76.66452      120.10614       42.08660
H         77.22472      123.01658       41.37417
H         79.30536      121.93236       41.39079
H         78.85574      122.19494       39.67869
N         75.03197      121.18448       39.89453
C         74.08404      121.25443       38.78139
C         74.67987      120.81107       37.45173
O         74.05542      121.02284       36.42267
H         74.82298      120.55346       40.67052
H         73.73215      122.30394       38.69298
H         73.19680      120.61511       38.98769
N         75.85969      120.13455       37.41188
C         76.52239      119.62240       36.22066
C         75.63455      118.66382       35.44638
O         75.68551      118.61439       34.22556
C         77.19912      120.73646       35.39519
C         78.22934      121.48482       36.26569
C         79.02795      122.49292       35.48507
N         79.01515      123.80296       35.82664
O         79.71921      122.11850       34.54964
H         76.30282      119.89033       38.30013
H         77.35495      118.97696       36.58476
H         76.44404      121.44501       34.99183
H         77.73729      120.26462       34.54373
H         78.94619      120.75776       36.70592
H         77.70340      121.98765       37.09822
H         78.44968      124.14006       36.61954
H         79.58195      124.48459       35.30070
N         74.86271      117.79366       36.15238
C         74.15528      116.64416       35.59733
C         74.69933      115.35010       36.20300
O         74.53608      114.30259       35.59275
C         72.62339      116.73931       35.83976
C         72.26534      116.87561       37.33406
C         72.01171      117.90164       35.05098
H         74.81288      117.94780       37.16448
H         74.34047      116.58485       34.50103
H         72.15645      115.80311       35.45943
H         71.16330      116.87311       37.46537
H         72.67709      116.02916       37.92205
H         72.65161      117.82654       37.75838
H         70.91069      117.92337       35.20066
H         72.43657      118.87332       35.37879
H         72.20741      117.76821       33.96579
N         75.30962      115.34349       37.42435
C         75.84312      114.17636       38.09741
C         77.31794      114.41932       38.40051
O         77.80508      115.52955       38.21964
C         75.02107      114.00637       39.39777
C         75.55517      112.98322       40.36016
N         76.04734      113.37512       41.55993
O         75.56287      111.80075       40.05456
H         75.39736      116.20851       37.96620
H         75.75492      113.27005       37.45936
H         73.96249      113.77229       39.15052
H         75.02440      114.98519       39.91056
H         76.05311      114.36926       41.83611
H         76.44915      112.68590       42.20838
N         78.10012      113.39950       38.84575
C         79.50297      113.57484       39.21559
C         80.19433      112.22142       39.37776
O         79.53415      111.19016       39.36168
C         79.56186      114.40534       40.53255
C         80.94481      114.78099       41.00587
C         81.76373      115.61024       40.22122
C         81.42020      114.32613       42.24904
C         83.03871      115.97111       40.66857
C         82.69517      114.68860       42.69392
C         83.50866      115.51071       41.90737
O         84.73465      115.85361       42.35224
H         77.67163      112.46580       38.88758
H         80.01283      114.09998       38.37799
H         79.03539      113.82290       41.32152
H         79.00391      115.35705       40.41060
H         81.41379      115.97887       39.26541
H         80.80606      113.69262       42.87699
H         83.65893      116.61059       40.05320
H         83.04996      114.33235       43.65320
H         85.32764      116.42286       41.84108
N         81.54673      112.15082       39.51235
C         82.26934      110.90416       39.70466
C         82.99683      110.97313       41.04078
O         84.18860      111.25049       41.04495
C         83.23749      110.63600       38.53393
C         82.48878      110.40239       37.21278
C         83.43524      109.96612       36.13155
O         83.28113      108.76052       35.54982
O         84.34834      110.69437       35.77747
H         82.10328      113.01636       39.47710
H         81.59482      110.03474       39.69614
H         83.79862      109.70393       38.77254
H         83.96575      111.46909       38.42178
H         81.96229      111.32849       36.89803
H         81.73237      109.59925       37.35694
N         82.37220      110.77882       42.24277
C         80.97115      110.39303       42.41847
C         80.63650      109.04675       41.78429
O         81.53656      108.32646       41.37211
C         80.57464      110.37015       43.91926
C         81.09974      109.18843       44.77735
C         82.59334      109.09780       44.95315
O         83.14552      109.22927       46.17459
O         83.31469      108.82733       44.00721
H         82.94064      110.95071       43.08340
H         80.36415      111.18074       41.92629
H         79.46625      110.30191       43.96696
H         80.85545      111.33685       44.39010
H         80.73833      108.22226       44.36544
H         80.64156      109.30750       45.78039
N         79.33530      108.65605       41.66769
C         78.92272      107.41937       41.03331
H         78.25766      107.65488       40.17518
H         79.78171      106.82886       40.65086
H         78.36135      106.79763       41.76082
H         78.59041      109.27365       42.02298
Ca        81.92907      109.43583       48.07063
O         84.70164      107.68514       47.97243
H         85.10956      107.29153       48.78329
H         85.25738      108.48080       47.77460
O         81.04354      106.64857       47.05338
H         80.17412      106.95923       46.69571
H         80.91611      106.63630       48.03518
O         84.28732      111.37956       48.75733
H         84.63731      111.57112       47.85108
H         85.07148      111.04592       49.26150
O         81.43079      110.85369       50.73674
H         81.33488      110.88270       51.72148
H         80.51103      110.98307       50.39332

Ca 1.0



