%chk=apoCaM-CA-Ng.loop4.water4.frame569.chk
%nprocshared=20
%mem=10GB
%nosave
#b3lyp/svp scf=(tight,noincore,xqc) Test 
#IOP(5/87=12) Density=Current Pop=(MK,readradii) iop(6/33=2) iop(6/42=6)

apoCaM-CA-Ng.loop4.water4.frame569 

   -3  1 
C         50.02175       -4.40950       68.48026
C         49.60461       -5.70680       67.85034
O         50.13084       -6.74144       68.22971
H         51.10299       -4.23524       68.30173
H         49.45346       -3.55295       68.05959
H         49.83375       -4.45128       69.57358
N         48.64283       -5.72507       66.88487
C         48.14802       -6.92899       66.22555
C         47.53790       -7.88040       67.23884
O         47.86370       -9.05697       67.24592
C         49.24558       -7.59837       65.36390
C         49.77957       -6.66692       64.31764
O         49.03964       -6.21475       63.45886
O         51.08435       -6.33788       64.31516
H         48.20959       -4.83147       66.60604
H         47.32311       -6.62517       65.54297
H         48.83027       -8.49438       64.85328
H         50.08737       -7.92922       66.00252
N         46.60918       -7.42170       68.12018
C         45.93565       -8.27114       69.10116
C         44.44683       -8.30288       68.79073
O         43.98340       -7.43863       68.05828
C         46.20627       -7.76284       70.55991
C         45.80699       -6.27327       70.75049
C         47.67238       -8.01887       70.94741
C         45.83705       -5.80931       72.20849
H         46.34821       -6.42569       68.06916
H         46.30249       -9.31329       69.01049
H         45.59122       -8.35050       71.26296
H         44.76452       -6.12879       70.39568
H         46.47505       -5.61257       70.15813
H         48.36353       -7.43643       70.30466
H         47.85949       -7.75811       72.00877
H         47.90503       -9.09973       70.84147
H         45.14629       -6.42674       72.82140
H         46.85778       -5.86113       72.63609
H         45.50265       -4.75137       72.26242
N         43.59398       -9.23930       69.29811
C         43.96987      -10.42630       70.06751
C         44.65665      -11.44668       69.17782
O         45.74726      -11.89372       69.50528
C         42.71607      -11.05961       70.70013
C         42.04944      -10.08688       71.63671
O         42.72499       -9.59256       72.69269
O         40.89911       -9.73118       71.43742
H         42.59248       -9.11400       69.07850
H         44.62901      -10.17135       70.91584
H         43.00743      -11.96079       71.28264
H         42.00014      -11.37174       69.90811
N         44.06073      -11.85701       68.02354
C         44.61734      -12.86475       67.13978
C         44.54043      -14.23777       67.76528
O         43.45362      -14.64957       68.14709
H         43.16993      -11.42068       67.74177
H         45.65240      -12.58812       66.83947
H         44.00033      -12.90103       66.21612
N         45.64578      -15.03075       67.85038
C         45.60205      -16.40189       68.36288
C         45.39139      -16.49584       69.87771
O         45.28541      -17.61075       70.37098
C         46.82744      -17.20855       67.86857
C         48.16574      -16.61120       68.20924
O         48.55471      -16.47006       69.48512
O         48.92282      -16.27010       67.31443
H         46.52674      -14.67119       67.45339
H         44.73203      -16.91695       67.89457
H         46.75461      -17.26790       66.75910
H         46.77494      -18.24980       68.25459
N         45.25374      -15.39356       70.67324
C         44.90885      -15.46862       72.08713
C         46.01535      -15.95295       73.00380
O         45.76617      -16.00085       74.19962
H         45.30115      -14.45404       70.25987
H         44.00458      -16.10503       72.21010
H         44.64533      -14.44677       72.43729
N         47.26364      -16.27770       72.55173
C         48.37302      -16.67645       73.41888
C         48.82549      -15.55278       74.34535
O         49.66131      -15.81132       75.20040
C         48.06512      -18.00243       74.16404
C         47.89653      -19.17575       73.18074
C         49.19264      -19.46948       72.45999
N         49.29719      -19.30947       71.12061
O         50.16510      -19.84169       73.10050
H         47.45788      -16.21835       71.54980
H         49.26702      -16.87140       72.78705
H         47.15254      -17.90138       74.78390
H         48.89847      -18.25608       74.85590
H         47.08507      -18.93542       72.46067
H         47.59574      -20.09078       73.73465
H         48.49649      -18.98049       70.56306
H         50.19093      -19.49700       70.64161
N         48.43332      -14.25828       74.14300
C         48.98070      -13.12656       74.88974
C         49.89231      -12.27080       74.02370
O         50.55429      -11.40459       74.58139
C         47.85772      -12.21834       75.47815
C         46.87519      -11.71178       74.39891
C         47.09077      -12.91437       76.60247
H         47.79376      -14.05018       73.36666
H         49.62523      -13.49259       75.71898
H         48.34369      -11.32679       75.93511
H         46.15858      -10.98823       74.84069
H         47.41472      -11.19533       73.57660
H         46.28078      -12.54415       73.96638
H         47.79355      -13.19989       77.41377
H         46.34178      -12.21354       77.03235
H         46.56906      -13.81995       76.23090
N         49.94092      -12.38665       72.66490
C         50.68732      -11.43582       71.85584
C         52.17222      -11.77682       71.85524
O         52.52363      -12.94083       71.99397
C         50.12429      -11.42356       70.41805
C         50.50506      -10.21938       69.58918
N         50.12766      -10.16292       68.29855
O         51.12019       -9.28007       70.06725
H         49.33499      -13.06507       72.18337
H         50.49829      -10.42274       72.27962
H         49.01311      -11.40752       70.46292
H         50.43326      -12.35911       69.90333
H         49.60083      -10.93657       67.86875
H         50.37791       -9.34615       67.72706
N         53.09625      -10.79603       71.67910
C         54.54093      -11.01832       71.56034
C         55.29899       -9.69487       71.66305
O         54.66724       -8.65523       71.80270
C         54.85872      -11.83256       70.27196
C         54.22771      -11.27654       69.00994
C         53.20171      -12.00032       68.37132
C         54.64401      -10.05520       68.45331
C         52.59266      -11.50469       67.21669
C         54.03376       -9.56286       67.29230
C         53.00095      -10.27895       66.67666
O         52.40423       -9.77938       65.57508
H         52.73578       -9.83709       71.63114
H         54.88877      -11.60655       72.43719
H         54.45969      -12.85599       70.43398
H         55.95224      -11.96075       70.12793
H         52.85763      -12.94541       68.77342
H         55.44068       -9.48454       68.91048
H         51.79353      -12.06888       66.75062
H         54.36061       -8.62034       66.87279
H         51.66593      -10.22964       65.13917
N         56.66427       -9.65316       71.66064
C         57.39879       -8.41277       71.89456
C         58.10779       -7.98543       70.61648
O         59.04476       -8.66435       70.21986
C         58.37711       -8.58719       73.07257
C         59.08436       -7.27093       73.43445
C         60.03690       -7.46839       74.57738
O         59.58322       -7.89025       75.77330
O         61.22665       -7.23772       74.43094
H         57.19907      -10.52207       71.50762
H         56.70522       -7.62406       72.23362
H         59.13169       -9.36417       72.81923
H         57.80345       -8.93743       73.95994
H         58.33057       -6.50727       73.72570
H         59.64587       -6.89176       72.55331
N         57.73906       -6.88434       69.89074
C         56.54091       -6.09060       70.16180
C         56.80959       -4.95020       71.12351
O         57.95796       -4.67449       71.44339
C         55.85231       -5.62858       68.86465
C         56.66134       -4.65478       67.99552
C         55.79965       -4.21043       66.85097
O         55.28062       -5.12078       66.00606
O         55.51258       -3.03162       66.71873
H         58.28474       -6.67681       69.04202
H         55.77455       -6.74301       70.61467
H         54.89626       -5.13315       69.14377
H         55.60015       -6.53003       68.26223
H         57.57503       -5.13968       67.59551
H         56.96015       -3.76849       68.59624
N         55.76268       -4.25551       71.65026
C         55.94065       -3.16504       72.58285
H         54.94860       -2.77909       72.90305
H         56.48876       -3.51727       73.48233
H         56.50363       -2.33998       72.09863
H         54.79900       -4.52175       71.39767
Ca        53.64991       -4.47724       64.58924
O         51.51656       -3.83251       62.62105
H         50.55995       -3.99467       62.81659
H         51.61074       -4.02670       61.65512
O         52.91702       -6.19618       67.36887
H         52.94301       -6.70328       68.21896
H         52.49815       -6.81621       66.72108
O         55.29348       -4.75362       62.25158
H         56.19138       -4.81228       62.66480
H         55.43693       -4.26795       61.40156
O         53.66948       -7.33963       63.26518
H         54.50814       -7.61661       62.81852
H         53.66064       -7.84720       64.11498

Ca 1.0



