%chk=apoCaM-CA-Ng.loop2.water6.frame1279.chk
%nprocshared=20
%mem=10GB
%nosave
#b3lyp/svp scf=(tight,noincore,xqc) Test 
#IOP(5/87=12) Density=Current Pop=(MK,readradii) iop(6/33=2) iop(6/42=6)

apoCaM-CA-Ng.loop2.water6.frame1279 

   -2  1 
C         49.02918       47.62515       14.35475
C         48.41820       48.88805       13.80079
O         48.39387       49.02664       12.58655
H         49.90615       47.87985       14.98584
H         48.30637       47.03416       14.94228
H         49.38541       46.97328       13.52801
N         47.94309       49.89837       14.58913
C         47.89312       49.86500       16.04814
C         47.75317       51.27562       16.62769
O         46.80772       51.98178       16.31144
C         46.74105       48.95976       16.57124
C         45.35657       49.36832       16.12785
O         44.38056       48.80205       16.59288
O         45.18507       50.37118       15.24752
H         47.63127       50.75916       14.11233
H         48.85167       49.45429       16.43118
H         46.77389       48.99644       17.68247
H         46.88664       47.90446       16.28257
N         48.65730       51.73753       17.53322
C         48.51001       53.02587       18.20045
C         48.59403       54.18501       17.22226
O         49.58039       54.30054       16.50848
C         49.57698       53.18871       19.28384
H         49.44255       51.12568       17.80387
H         47.52793       53.04035       18.72578
H         49.42467       54.14986       19.82079
H         49.48733       52.36242       20.02173
H         50.59545       53.17202       18.84293
N         47.60137       55.11964       17.19293
C         47.62598       56.30833       16.33391
C         46.61335       57.35776       16.80324
O         45.90930       57.12048       17.77608
C         47.44087       55.90685       14.85004
C         46.17278       55.13510       14.59966
O         46.22681       54.00085       14.15242
O         44.97364       55.68907       14.84787
H         46.82361       54.99316       17.85669
H         48.61426       56.80657       16.44450
H         48.30229       55.27872       14.53837
H         47.45372       56.80704       14.20166
N         46.50762       58.56869       16.17536
C         45.61299       59.61751       16.64928
C         44.45838       59.80822       15.70584
O         44.21044       60.91836       15.25809
H         47.07630       58.76253       15.33812
H         46.18310       60.55951       16.80420
H         45.16438       59.34874       17.62875
N         43.68720       58.73338       15.39025
C         42.47595       58.78027       14.58787
C         41.36796       58.12014       15.38834
O         41.55432       56.98698       15.80498
C         42.64984       58.01140       13.25866
C         43.68889       58.61132       12.33960
N         45.00728       58.56468       12.64177
O         43.33294       59.11981       11.28667
H         43.97089       57.81473       15.75994
H         42.19814       59.82691       14.33001
H         41.66763       58.04948       12.73505
H         42.89677       56.94257       13.43555
H         45.33956       58.10943       13.50171
H         45.70509       58.96303       11.99582
N         40.17421       58.73534       15.61305
C         39.08715       58.07577       16.32519
C         39.38411       57.95891       17.80699
O         39.54140       59.00008       18.42832
H         40.00575       59.67053       15.21286
H         38.88628       57.10123       15.84310
H         38.16418       58.68647       16.22853
N         39.49240       56.77341       18.48221
C         39.40778       55.44381       17.87748
C         38.01228       55.07934       17.38504
O         37.03472       55.72494       17.73437
C         39.88105       54.34716       18.87400
C         41.36504       54.48975       19.22554
O         39.12643       54.39457       20.05951
H         39.72328       56.83717       19.48630
H         40.09294       55.41921       17.00809
H         39.78334       53.34010       18.40607
H         38.27168       53.92244       19.88318
H         41.66548       53.67391       19.91755
H         41.98227       54.40965       18.30710
H         41.57929       55.46045       19.71778
N         37.88927       54.01631       16.53732
C         36.64388       53.46646       16.00132
C         36.66062       51.95257       16.25184
O         37.68175       51.34993       15.94711
C         36.57361       53.75724       14.47213
C         36.53863       55.27974       14.16080
C         35.38380       53.04387       13.79953
C         35.29669       56.02741       14.66954
H         38.76490       53.57025       16.22047
H         35.77587       53.94579       16.47976
H         37.49767       53.35038       14.00261
H         36.58811       55.41811       13.05915
H         37.43940       55.76228       14.58957
H         35.46800       51.94377       13.91387
H         34.41831       53.35933       14.24225
H         35.37413       53.26096       12.71043
H         35.37256       57.09841       14.38784
H         34.36979       55.62619       14.21149
H         35.20744       55.97843       15.77229
N         35.62493       51.21784       16.76338
C         34.27260       51.67333       17.06387
C         33.26804       50.87132       16.22900
O         33.28190       49.65023       16.25599
C         34.00503       51.60355       18.58271
C         34.21832       50.25670       19.21907
O         33.52073       49.30338       18.91603
O         35.16292       50.11071       20.16814
H         35.80409       50.21228       16.91569
H         34.13285       52.73654       16.80663
H         32.96817       51.94697       18.79137
H         34.69888       52.32377       19.07080
N         32.35954       51.53069       15.45619
C         31.35291       50.90529       14.59668
C         31.50839       51.48716       13.19006
O         31.60907       52.70224       13.09855
C         29.95488       51.28097       15.15130
C         28.81948       50.75018       14.30125
C         28.05318       51.63825       13.52636
C         28.51982       49.37605       14.26089
C         27.02651       51.16051       12.70768
C         27.48858       48.90185       13.44024
C         26.74631       49.79339       12.66115
H         32.35717       52.56088       15.49650
H         31.44026       49.79820       14.59245
H         29.89576       52.39059       15.19365
H         29.83111       50.91028       16.19274
H         28.26282       52.70012       13.54014
H         29.09188       48.67124       14.85154
H         26.45244       51.85155       12.10414
H         27.26805       47.84260       13.40154
H         25.95411       49.42631       12.02095
N         31.45912       50.74474       12.03567
C         31.12030       49.33679       11.92847
C         32.30113       48.38762       11.98169
O         32.08115       47.24482       12.35251
C         30.44855       49.26808       10.54801
C         31.26853       50.25198        9.73679
C         31.42804       51.39421       10.73353
H         30.36610       48.99975       12.65309
H         30.35340       48.24949       10.11336
H         29.42494       49.70116       10.63892
H         32.25788       49.79281        9.53741
H         30.83285       50.55611        8.76162
H         32.33720       51.99545       10.51923
H         30.52699       52.04795       10.70221
N         33.54277       48.72916       11.53000
C         34.59439       47.72876       11.36647
C         34.15841       46.74291       10.28418
O         33.92494       47.18263        9.16675
C         35.92699       48.37663       10.93489
C         36.50627       49.29873       12.02089
C         37.81824       49.92185       11.62222
O         38.32687       49.69552       10.53450
O         38.44160       50.74728       12.48323
H         33.72672       49.70146       11.24663
H         34.77164       47.22236       12.33784
H         35.77835       48.94977        9.99215
H         36.66594       47.56637       10.74197
H         36.66976       48.70792       12.94808
H         35.79188       50.11716       12.24311
N         34.00501       45.40532       10.50107
C         34.25095       44.75429       11.76829
H         33.57787       45.16027       12.55036
H         34.05097       43.66551       11.67418
H         35.31048       44.89316       12.06804
H         33.69657       44.81307        9.71383
Ca        43.22911       51.41202       14.90722
O         44.42342       53.00499       17.80079
H         43.96028       52.20383       18.15294
H         44.57917       53.57244       18.59709
O         41.18312       50.90915       17.01130
H         41.39644       51.50637       17.77128
H         40.81886       51.51323       16.31615
O         42.23855       54.22797       15.04496
H         42.60013       54.49734       15.92613
H         41.26055       54.35940       15.12191
O         41.41106       49.93999       13.24934
H         42.13264       50.12068       12.59536
H         41.05688       50.83602       13.47983
O         45.41590       51.44486       12.30703
H         46.29150       51.89111       12.18717
H         45.57195       50.50923       12.02385
O         43.06440       53.29371       12.25635
H         43.53653       54.15438       12.12639
H         42.10316       53.52581       12.20815

Ca 1.0



