%chk=apoCaM-CA-Ng.loop1.water3.frame145.chk
%nprocshared=20
%mem=10GB
%nosave
#b3lyp/svp scf=(tight,noincore,xqc) Test 
#IOP(5/87=12) Density=Current Pop=(MK,readradii) iop(6/33=2) iop(6/42=6)

apoCaM-CA-Ng.loop1.water3.frame145 

   0  1 
C         38.13640       46.73687      -28.50325
C         36.76258       47.02534      -27.97742
O         36.04882       46.09630      -27.62729
H         38.89083       47.21411      -27.84271
H         38.32695       45.64282      -28.52999
H         38.23973       47.14560      -29.53002
N         36.32629       48.31227      -27.89904
C         35.02226       48.69052      -27.36436
C         34.10500       49.30354      -28.42098
O         32.96991       49.59485      -28.07839
C         35.22350       49.63769      -26.15657
C         36.02786       50.87028      -26.48974
O         37.19056       51.10694      -25.85232
O         35.63953       51.65737      -27.33530
H         36.95832       49.05988      -28.22657
H         34.48326       47.79261      -26.99036
H         35.76172       49.08252      -25.35797
H         34.23775       49.93845      -25.74249
N         34.50604       49.53165      -29.70746
C         33.65310       50.16604      -30.71628
C         32.77905       49.13243      -31.41614
O         33.34593       48.13885      -31.85097
C         34.51557       50.83468      -31.81890
C         35.59724       51.80697      -31.31769
C         35.07675       52.92688      -30.40929
C         36.24445       53.82481      -29.97321
N         35.81701       54.81438      -28.98752
H         35.47537       49.30903      -29.97061
H         33.07133       50.97830      -30.24930
H         33.83499       51.37848      -32.51012
H         35.04408       50.05465      -32.41147
H         36.09123       52.25282      -32.20894
H         36.36865       51.23425      -30.76103
H         34.61874       52.47776      -29.50602
H         34.30535       53.53083      -30.93487
H         36.66620       54.33971      -30.86491
H         37.04602       53.19978      -29.51885
H         36.63120       55.42127      -28.73938
H         35.04903       55.40845      -29.37480
H         35.49510       54.32798      -28.11981
N         31.43841       49.26310      -31.67318
C         30.52604       50.34305      -31.28772
C         30.99434       51.69265      -31.81629
O         31.33732       52.56061      -31.02633
C         30.23022       50.28735      -29.77526
C         29.94781       48.83140      -29.38898
O         29.64290       48.64751      -28.04140
O         28.91121       48.25619      -30.12876
H         31.00414       48.49980      -32.21719
H         29.54000       50.13842      -31.76088
H         29.36618       50.94440      -29.53560
H         31.09353       50.63813      -29.18621
N         31.06584       51.95587      -33.15401
C         30.50924       51.06395      -34.16247
C         30.90883       51.42281      -35.58255
O         31.76269       52.27681      -35.77332
H         31.47139       52.85825      -33.44634
H         29.40587       51.07679      -34.04612
H         30.87682       50.03152      -34.01240
N         30.39329       50.75589      -36.65777
C         29.29542       49.79462      -36.55829
C         27.97937       50.51086      -36.26134
O         27.93358       51.73387      -36.28324
C         29.17016       48.92511      -37.83723
C         28.79781       49.67935      -39.09150
O         29.62045       50.60959      -39.61124
O         27.75806       49.41402      -39.67316
H         30.80733       50.95656      -37.57799
H         29.52747       49.08583      -35.73358
H         28.39616       48.14707      -37.65544
H         30.12886       48.39144      -38.01187
N         26.85645       49.79427      -35.98328
C         25.55590       50.39810      -35.74503
C         25.53833       51.29264      -34.52717
O         25.14062       52.44408      -34.63538
H         26.91488       48.76517      -35.95589
H         24.81741       49.58475      -35.57144
H         25.23154       50.96222      -36.64650
N         25.91622       50.80156      -33.31709
C         25.79575       51.55077      -32.06720
C         26.62361       52.83068      -32.07701
O         27.71035       52.84947      -32.63628
C         26.19900       50.67274      -30.85572
C         25.31164       49.43121      -30.72072
O         26.07428       51.41688      -29.67452
H         26.26529       49.83234      -33.29024
H         24.72597       51.82789      -31.92932
H         27.25960       50.36186      -30.99414
H         26.66535       50.99190      -28.99982
H         25.38442       48.75813      -31.59611
H         25.63979       48.85763      -29.83678
H         24.25121       49.72829      -30.57544
N         26.17313       53.91953      -31.38569
C         26.90600       55.17837      -31.24037
C         27.37069       55.40377      -29.80046
O         28.01694       56.41388      -29.55090
C         26.05256       56.37746      -31.76941
C         24.61163       56.50034      -31.19199
C         25.95189       56.30405      -33.30091
C         24.51971       56.63749      -29.67464
H         25.27128       53.83538      -30.89401
H         27.84975       55.14814      -31.82889
H         26.60230       57.31763      -31.53847
H         23.99217       55.63191      -31.50296
H         24.14506       57.41078      -31.62841
H         26.96595       56.29844      -33.75429
H         25.41039       55.38836      -33.62000
H         25.41256       57.19287      -33.69434
H         25.12259       57.49931      -29.31969
H         23.46006       56.79792      -29.38358
H         24.84791       55.70763      -29.17671
N         27.11214       54.50230      -28.81181
C         27.54611       54.63422      -27.42909
C         28.50912       53.51198      -27.09012
O         28.25638       52.35973      -27.41546
C         26.34543       54.68554      -26.45215
C         25.35728       53.52044      -26.58395
O         25.65271       55.89187      -26.64824
H         26.59111       53.65198      -29.03976
H         28.09008       55.59279      -27.27197
H         26.77792       54.67058      -25.42138
H         25.33529       56.19736      -25.75778
H         24.85889       53.53683      -27.57597
H         25.86158       52.54449      -26.43924
H         24.56619       53.62264      -25.81119
N         29.63487       53.79722      -26.38578
C         30.65502       52.82365      -26.01977
C         30.43187       52.39281      -24.57321
O         29.49922       52.87599      -23.94227
C         32.04295       53.49556      -26.26245
C         32.23513       53.90108      -27.73413
O         33.11692       52.69257      -25.85151
H         29.75891       54.76218      -26.03869
H         30.57048       51.90347      -26.64130
H         32.08561       54.42660      -25.65440
H         33.19593       51.94646      -26.49838
H         32.23532       53.00255      -28.38748
H         31.43459       54.58995      -28.07312
H         33.20314       54.42581      -27.84867
N         31.25272       51.48276      -23.97698
C         31.13389       51.07718      -22.58210
C         31.19566       49.56648      -22.40983
O         31.32299       49.12718      -21.27458
C         32.26073       51.75903      -21.77731
C         32.01096       53.27300      -21.68690
C         33.03737       53.97000      -20.78816
C         32.64346       55.42386      -20.46997
N         32.56131       56.26716      -21.66306
H         32.05045       51.10214      -24.50450
H         30.17349       51.40807      -22.12732
H         33.25579       51.53444      -22.22159
H         32.24561       51.37131      -20.73511
H         31.00269       53.42388      -21.24108
H         32.02799       53.72495      -22.70067
H         34.04301       53.92698      -21.25975
H         33.08453       53.43345      -19.81522
H         33.40301       55.84704      -19.77680
H         31.66229       55.43292      -19.94337
H         31.79666       55.94177      -22.29634
H         32.33755       57.24472      -21.36678
H         33.47548       56.26560      -22.16970
N         31.07004       48.69490      -23.45416
C         31.20140       47.25757      -23.24798
C         32.66713       46.92632      -23.07406
O         33.44433       47.15571      -23.99157
C         30.58619       46.44875      -24.40529
C         29.05648       46.63022      -24.44488
C         28.37982       45.75845      -25.46556
O         27.03795       45.78313      -25.56341
O         29.02020       45.01156      -26.18895
H         30.86429       49.04791      -24.40011
H         30.63662       46.96020      -22.33506
H         30.79438       45.37088      -24.22041
H         31.04330       46.73668      -25.37813
H         28.80362       47.69199      -24.65201
H         28.63641       46.35462      -23.45286
N         33.12120       46.40017      -21.90430
C         34.51940       46.09944      -21.68979
H         35.12528       47.02507      -21.79350
H         34.66588       45.69308      -20.66654
H         34.86427       45.34490      -22.42791
H         32.45913       46.21736      -21.13522
Ca        28.46666       46.74498      -28.50586
O         25.84375       47.34598      -27.95932
H         25.86672       47.59180      -27.00198
H         25.26484       46.54593      -28.01275
O         29.18376       43.48103      -28.96368
H         29.90323       42.86601      -28.67274
H         28.41095       42.88989      -29.14765
O         31.67326       46.02918      -29.00210
H         31.93739       46.92665      -29.32453
H         32.45661       45.45852      -29.20250

Ca 1.0



