%chk=apoCaM-CA-Ng.loop3.water4.frame306.chk
%nprocshared=20
%mem=10GB
%nosave
#b3lyp/svp scf=(tight,noincore,xqc) Test 
#IOP(5/87=12) Density=Current Pop=(MK,readradii) iop(6/33=2) iop(6/42=6)

apoCaM-CA-Ng.loop3.water4.frame306 

   0  1 
C         72.31440       33.92400       29.15151
C         73.64377       33.46496       29.67375
O         74.58605       33.41950       28.89802
H         71.54274       33.92960       29.94911
H         72.41380       34.95474       28.74878
H         71.98045       33.24840       28.33640
N         73.79650       33.11239       30.98588
C         75.06537       32.70087       31.58676
C         75.60797       31.39115       31.02592
O         76.73350       31.04605       31.36179
C         76.10937       33.83623       31.50196
C         75.61609       35.07182       32.20679
O         75.47425       36.11943       31.59857
O         75.33050       35.02649       33.52221
H         72.97616       33.16404       31.60870
H         74.90101       32.51113       32.67128
H         76.35590       34.05347       30.44521
H         77.05183       33.52189       31.99987
N         74.85269       30.55630       30.25120
C         75.36106       29.26061       29.80677
C         76.33571       29.39108       28.63993
O         76.87294       28.37138       28.22722
C         74.21034       28.31955       29.36939
C         73.17332       28.06701       30.47759
C         72.15766       27.00162       30.04011
C         71.07198       26.79446       31.10489
N         70.14703       25.73208       30.70938
H         73.87420       30.80275       30.04728
H         75.86905       28.76627       30.66548
H         74.65716       27.33933       29.08873
H         73.69389       28.73559       28.47555
H         72.63826       29.01168       30.71106
H         73.68642       27.71107       31.39758
H         72.69517       26.04226       29.87079
H         71.67212       27.31035       29.08848
H         70.50686       27.74385       31.23990
H         71.54165       26.52373       32.07639
H         69.70011       25.96129       29.79199
H         70.65913       24.82293       30.63438
H         69.40081       25.63878       31.43589
N         76.54753       30.57725       27.99273
C         77.28017       30.64090       26.73115
C         78.76371       30.33674       26.90089
O         79.26193       30.34929       28.01835
C         77.06854       32.02406       26.06855
C         77.43249       32.01693       24.61273
O         78.37822       32.83706       24.12580
O         76.84698       31.26583       23.84867
H         76.06928       31.42560       28.32225
H         76.81716       29.86898       26.07571
H         77.63310       32.80426       26.62765
H         75.98942       32.28910       26.11042
N         79.52668       30.02424       25.81292
C         80.95212       29.74233       25.88387
C         81.81143       30.98599       26.02738
O         83.02126       30.83475       26.11723
H         79.06667       29.92282       24.89781
H         81.26946       29.25390       24.93906
H         81.14709       29.02408       26.71026
N         81.27549       32.24076       26.04167
C         82.05841       33.46239       26.19506
C         81.70887       34.15530       27.50531
O         82.21120       35.24598       27.74296
C         81.75258       34.42233       25.02405
C         82.11061       33.86546       23.67095
N         83.39253       33.57583       23.35213
O         81.23330       33.70350       22.83879
H         80.25620       32.35763       25.96197
H         83.14980       33.25123       26.21213
H         82.32869       35.36050       25.15988
H         80.66781       34.67523       25.04177
H         84.15288       33.72778       24.02957
H         83.62653       33.21515       22.41483
N         80.85371       33.59225       28.41051
C         80.43200       34.25957       29.62616
C         79.45566       35.39538       29.37645
O         79.02290       35.98906       30.35295
H         80.48528       32.64448       28.25974
H         81.32237       34.60734       30.19356
H         79.89180       33.52280       30.26059
N         79.03937       35.74759       28.12046
C         78.03880       36.78302       27.87712
C         77.93121       37.08225       26.39298
O         77.88831       36.15793       25.59247
C         76.65684       36.34145       28.39314
C         75.65636       37.46571       28.27863
C         75.82997       38.63864       29.03445
C         74.55522       37.36199       27.41515
C         74.92184       39.69280       28.92255
C         73.64916       38.42110       27.30135
C         73.83127       39.59110       28.05435
O         72.96911       40.62197       27.95078
H         79.43448       35.26429       27.30465
H         78.35837       37.70827       28.40461
H         76.71446       36.05580       29.45477
H         76.32942       35.44613       27.81890
H         76.66963       38.73738       29.71147
H         74.40471       36.46919       26.82143
H         75.06947       40.59078       29.50950
H         72.80922       38.33332       26.62458
H         72.20585       40.59639       27.35674
N         77.83701       38.37088       25.96040
C         77.83664       38.72076       24.54551
C         79.22140       38.39894       24.02005
O         79.33307       37.60229       23.10158
C         77.42210       40.20755       24.33215
C         75.99001       40.50112       24.87625
C         77.51051       40.61575       22.84915
C         74.84673       39.75461       24.17011
H         77.79506       39.12403       26.66321
H         77.09077       38.10054       24.00280
H         78.12960       40.85254       24.89857
H         75.78993       41.59010       24.77877
H         75.94002       40.25907       25.95760
H         77.21455       41.67944       22.72653
H         78.54108       40.51368       22.46983
H         76.86232       39.98109       22.21123
H         73.87913       40.04408       24.63102
H         74.79182       40.02274       23.09521
H         74.94950       38.65556       24.27067
N         80.33162       38.89555       24.64109
C         81.67443       38.42514       24.31295
C         82.17745       38.89756       22.95980
O         83.18097       38.36422       22.50852
C         82.67089       38.80729       25.41578
O         82.23936       38.27304       26.63822
H         80.20173       39.51748       25.45451
H         81.62964       37.31682       24.28366
H         82.73513       39.91582       25.48978
H         83.67064       38.38573       25.16542
H         82.93812       38.50141       27.30424
N         81.53865       39.87038       22.24600
C         81.93077       40.29604       20.90510
C         81.84153       39.13698       19.91688
O         82.60871       39.09028       18.96495
C         83.32033       40.95541       20.92164
H         80.71622       40.32925       22.65464
H         81.20693       41.07187       20.56989
H         83.32995       41.79732       21.64587
H         84.11244       40.23400       21.20936
H         83.56952       41.35721       19.91710
N         80.92524       38.14579       20.11116
C         80.80262       36.95752       19.28205
C         79.39007       36.86544       18.74486
O         78.45018       36.92728       19.52583
C         81.13629       35.72568       20.12492
H         80.29175       38.21126       20.91847
H         81.52865       36.97603       18.43975
H         82.17469       35.80554       20.51242
H         80.44212       35.63236       20.98537
H         81.07233       34.80844       19.50348
N         79.17037       36.71505       17.40783
C         77.85188       36.68749       16.78388
C         77.17798       38.03438       16.97908
O         76.08020       38.10309       17.51639
C         76.96021       35.50762       17.26699
C         77.53606       34.10929       16.99325
C         78.71984       33.79300       17.85581
O         79.79740       33.52158       17.35165
O         78.58766       33.78567       19.19539
H         79.98557       36.64019       16.78044
H         77.99337       36.55841       15.68742
H         76.00450       35.57217       16.70098
H         76.70611       35.59923       18.34444
H         77.79379       34.01659       15.91593
H         76.75388       33.35472       17.22670
N         77.80981       39.16368       16.55285
C         77.25533       40.49452       16.69213
H         76.25322       40.48942       17.16979
H         77.93728       41.11209       17.31315
H         77.16276       40.95884       15.68825
H         78.73712       39.08142       16.10886
Ca        78.75856       32.66545       21.90576
O         81.15097       31.87466       20.19644
H         81.78831       31.11801       20.16556
H         80.51728       31.69532       19.45733
O         79.95401       29.99529       22.40737
H         80.81858       29.53783       22.55715
H         79.38117       29.31362       21.97500
O         76.88863       30.74853       20.32279
H         76.41036       31.53415       19.95582
H         77.56012       30.52166       19.63132
O         77.60575       35.41208       22.26496
H         77.11341       35.43537       23.12291
H         78.54409       35.23635       22.52705

Ca 1.0



