%chk=apoCaM-CA-Ng.loop4.water4.frame960.chk
%nprocshared=20
%mem=10GB
%nosave
#b3lyp/svp scf=(tight,noincore,xqc) Test 
#IOP(5/87=12) Density=Current Pop=(MK,readradii) iop(6/33=2) iop(6/42=6)

apoCaM-CA-Ng.loop4.water4.frame960 

   -3  1 
C         79.79508      107.97309       42.30892
C         79.85369      109.46987       42.40586
O         79.40042      110.13859       41.48869
H         80.24910      107.49027       43.20044
H         78.73653      107.64693       42.23498
H         80.34696      107.63545       41.40717
N         80.39266      110.06669       43.50702
C         80.49226      111.50965       43.70547
C         79.10716      112.12795       43.68907
O         78.82603      112.99179       42.86800
C         81.42951      112.16653       42.67240
C         82.70145      111.39627       42.49535
O         82.94691      110.92160       41.26606
O         83.46899      111.18712       43.42060
H         80.75261      109.46701       44.26548
H         80.94631      111.68370       44.70701
H         81.64654      113.21493       42.97067
H         80.92815      112.19557       41.67967
N         78.17791      111.70025       44.58415
C         76.80749      112.19116       44.62209
C         76.65289      112.95139       45.93241
O         76.79160      112.31931       46.97079
C         75.83255      110.97418       44.50192
C         76.07414      110.13356       43.21541
C         74.35281      111.37345       44.61821
C         75.83854      110.87799       41.89865
H         78.45913      110.99270       45.28166
H         76.62526      112.87124       43.77445
H         76.04258      110.29487       45.35852
H         75.40932      109.24273       43.23311
H         77.11792      109.75693       43.21467
H         74.03502      112.02863       43.78663
H         73.71581      110.46351       44.59617
H         74.16371      111.89562       45.57872
H         76.04445      110.19691       41.04594
H         74.78871      111.22341       41.80826
H         76.52369      111.74216       41.81517
N         76.45715      114.30554       46.01900
C         76.28677      115.23432       44.89987
C         76.54894      116.66271       45.37191
O         75.85583      117.15384       46.25216
C         74.87565      115.08058       44.30277
C         74.55639      116.10400       43.25644
O         73.44745      116.85370       43.38332
O         75.27941      116.25047       42.28553
H         76.47822      114.70759       46.97015
H         77.04984      115.01501       44.12209
H         74.11777      115.15383       45.11304
H         74.78261      114.08865       43.83683
N         77.60447      117.35529       44.85431
C         78.07728      118.62197       45.38177
C         77.29168      119.86370       45.01796
O         77.73749      120.91706       45.45371
H         78.19891      116.89861       44.14528
H         79.09839      118.79612       44.97405
H         78.17900      118.54069       46.48519
N         76.18556      119.88291       44.21015
C         75.66329      121.16898       43.73014
C         74.18572      121.23142       43.35791
O         73.74278      122.33935       43.08316
C         76.56269      121.69694       42.58318
C         76.80749      120.68612       41.48995
O         75.88996      120.23525       40.82964
O         78.06346      120.27355       41.23393
H         75.85226      119.00222       43.79441
H         75.71577      121.90346       44.56561
H         77.55330      121.95755       43.01031
H         76.13738      122.63046       42.15373
N         73.33898      120.16342       43.34494
C         71.92184      120.32492       43.02577
C         71.66289      120.82200       41.60997
O         70.52329      121.14051       41.30377
H         73.68164      119.23169       43.59634
H         71.48495      121.04653       43.74856
H         71.38930      119.35605       43.14963
N         72.65663      120.85052       40.67511
C         72.49705      121.22498       39.27586
C         71.53367      120.30343       38.53506
O         71.20497      120.59117       37.39288
C         72.21336      122.73226       39.07813
C         73.26066      123.59430       39.81371
C         73.35332      124.99745       39.26464
N         72.27894      125.81659       39.22087
O         74.42922      125.39817       38.84366
H         73.58698      120.52540       40.94031
H         73.48112      121.07080       38.77602
H         71.19041      123.02274       39.39951
H         72.30070      122.92550       37.98494
H         74.26867      123.13558       39.70132
H         73.01504      123.61656       40.89631
H         71.35820      125.50349       39.55659
H         72.37113      126.76780       38.83218
N         71.14899      119.11025       39.08366
C         70.36038      118.10198       38.38408
C         71.22292      116.90014       38.02111
O         70.76775      116.07706       37.23729
C         69.14141      117.64912       39.23614
C         69.56374      116.99610       40.57103
C         68.18942      118.81830       39.50850
H         71.50082      118.85590       40.01183
H         69.99689      118.52142       37.41983
H         68.57933      116.88686       38.65221
H         70.23662      116.13022       40.39460
H         70.08251      117.71520       41.23843
H         68.67131      116.62280       41.11431
H         67.83371      119.25267       38.55096
H         67.30576      118.46281       40.08046
H         68.69370      119.61139       40.09839
N         72.46791      116.72464       38.55279
C         73.36547      115.64084       38.19686
C         74.65625      116.23994       37.65799
O         74.85983      117.44539       37.76205
C         73.60663      114.78050       39.45903
C         74.60442      113.66783       39.26494
N         75.77116      113.66623       39.95215
O         74.36527      112.76734       38.47428
H         72.83048      117.38670       39.25190
H         72.91817      115.00984       37.39718
H         72.64251      114.33987       39.79600
H         73.96324      115.45203       40.26531
H         75.99438      114.41505       40.62295
H         76.46548      112.92068       39.80367
N         75.55821      115.45407       37.01355
C         76.81063      115.97256       36.46557
C         77.46363      114.93287       35.55021
O         77.00109      113.79828       35.51614
C         77.75229      116.34243       37.64824
C         78.87242      117.28447       37.28956
C         78.63366      118.67020       37.29103
C         80.16050      116.81096       36.99437
C         79.66221      119.56648       36.99237
C         81.18522      117.70964       36.67686
C         80.94153      119.08841       36.67724
O         81.94149      119.94240       36.37888
H         75.29509      114.47051       36.86863
H         76.55532      116.86632       35.85331
H         78.13832      115.41520       38.12718
H         77.18898      116.84755       38.46196
H         77.65233      119.05771       37.53844
H         80.36608      115.74819       36.99596
H         79.46320      120.63110       37.00783
H         82.17098      117.33425       36.43389
H         81.81347      120.90209       36.37303
N         78.54584      115.23232       34.77647
C         79.23583      114.21907       33.98594
C         80.65824      114.05079       34.49851
O         81.52444      114.79537       34.05966
C         79.22527      114.52963       32.47602
C         77.83075      114.37466       31.85556
C         77.89669      114.57329       30.36756
O         77.60040      113.66071       29.61203
O         78.29155      115.75573       29.85876
H         78.91393      116.19448       34.76722
H         78.72446      113.25414       34.06670
H         79.88563      113.78824       31.97103
H         79.63321      115.54757       32.28924
H         77.11955      115.10283       32.29787
H         77.45792      113.34564       32.06274
N         81.00943      113.13297       35.45331
C         80.07295      112.26921       36.17738
C         79.36816      111.24681       35.29925
O         79.74589      111.06195       34.14979
C         80.79247      111.52534       37.32793
C         81.80336      110.46253       36.83087
C         82.44592      109.77100       37.99207
O         83.78227      109.80922       38.15708
O         81.75242      109.21135       38.82775
H         82.00035      113.12261       35.74069
H         79.31040      112.93827       36.63306
H         80.02772      111.01846       37.95695
H         81.30637      112.27090       37.97510
H         82.59008      110.93773       36.20844
H         81.28352      109.69531       36.22054
N         78.31820      110.54089       35.80736
C         77.58373      109.54150       35.06086
H         76.52011      109.85054       34.98352
H         77.98516      109.39804       34.03634
H         77.63718      108.57246       35.59958
H         78.00801      110.72729       36.77315
Ca        84.38192      109.51484       40.29159
O         86.20147      111.80359       40.30989
H         86.10580      111.58705       41.27150
H         86.86646      111.15094       39.97431
O         85.52431      108.70915       43.17960
H         85.47708      109.59366       42.73928
H         86.05190      108.87550       44.00020
O         83.55946      106.54216       38.81666
H         83.52415      106.20885       37.88491
H         84.18658      105.92937       39.27660
O         86.62378      108.13771       38.78111
H         86.90944      107.19060       38.74341
H         86.63241      108.43924       37.83805

Ca 1.0



