%chk=apoCaM-CA-Ng.loop3.water3.frame714.chk
%nprocshared=20
%mem=10GB
%nosave
#b3lyp/svp scf=(tight,noincore,xqc) Test 
#IOP(5/87=12) Density=Current Pop=(MK,readradii) iop(6/33=2) iop(6/42=6)

apoCaM-CA-Ng.loop3.water3.frame714 

   0  1 
C         67.72662      -21.22292      -13.80542
C         67.74619      -22.71487      -13.94844
O         68.09022      -23.21165      -15.01170
H         66.70015      -20.88524      -13.55200
H         68.42134      -20.92034      -12.99355
H         68.04515      -20.73121      -14.74917
N         67.39681      -23.50039      -12.89294
C         67.42738      -24.95625      -12.94744
C         66.42874      -25.45799      -13.97794
O         65.24458      -25.18132      -13.84148
C         67.14646      -25.53712      -11.54537
C         67.40619      -27.01332      -11.42530
O         67.25358      -27.60856      -10.22793
O         67.77743      -27.67554      -12.38109
H         67.13081      -23.03614      -12.00991
H         68.45561      -25.26246      -13.22280
H         66.10300      -25.30789      -11.24229
H         67.82597      -25.04643      -10.81961
N         66.85061      -26.17484      -15.06061
C         65.95018      -26.59382      -16.13738
C         64.81715      -27.50400      -15.67347
O         63.84537      -27.62821      -16.40581
C         66.73648      -27.23140      -17.30809
C         67.45731      -28.53719      -16.91069
C         68.29718      -29.16034      -18.03921
C         69.45762      -28.25651      -18.48757
N         70.33442      -28.94719      -19.43265
H         67.85975      -26.36486      -15.14529
H         65.47750      -25.66313      -16.52449
H         67.47768      -26.47913      -17.64860
H         66.04567      -27.44074      -18.15398
H         66.69968      -29.28538      -16.59285
H         68.13291      -28.35299      -16.05233
H         67.65249      -29.41189      -18.90865
H         68.72778      -30.10533      -17.64088
H         70.05032      -27.96651      -17.59642
H         69.06544      -27.33479      -18.96742
H         70.76203      -29.78595      -18.97653
H         69.79633      -29.23921      -20.28017
H         71.10200      -28.29847      -19.72283
N         64.86957      -28.17178      -14.48524
C         63.76481      -28.96188      -13.94898
C         63.35141      -28.43110      -12.57929
O         62.18405      -28.11069      -12.40423
C         64.05023      -30.48583      -13.97580
C         65.28915      -31.04570      -13.32254
O         65.44684      -32.25565      -13.31787
O         66.24838      -30.26815      -12.79614
H         65.73148      -28.11003      -13.93108
H         62.86649      -28.86207      -14.60037
H         64.10203      -30.79858      -15.04197
H         63.16646      -30.99003      -13.52581
N         64.26057      -28.26433      -11.57934
C         63.95841      -27.72914      -10.26217
C         64.42367      -28.64465       -9.14405
O         64.34953      -28.22581       -7.99795
H         65.24180      -28.47701      -11.76312
H         62.87675      -27.51019      -10.13572
H         64.51088      -26.77209      -10.15924
N         64.90567      -29.90036       -9.38787
C         65.38345      -30.81143       -8.35078
C         66.83997      -31.23451       -8.71459
O         66.94812      -31.61379      -10.05937
C         64.37541      -31.98070       -8.26738
C         64.44427      -32.81670       -7.00899
N         63.58073      -33.84482       -6.84621
O         65.24220      -32.55669       -6.12015
H         64.90097      -30.25896      -10.35274
H         65.38754      -30.29718       -7.36512
H         64.47086      -32.61811       -9.17274
H         63.35089      -31.54601       -8.26229
H         62.88825      -34.06882       -7.57604
H         63.59870      -34.41386       -5.98710
N         67.49913      -32.20316       -7.81093
C         68.86638      -32.55285       -8.26071
C         69.83220      -31.38468       -8.26780
O         69.51109      -30.33300       -7.73338
H         66.95681      -33.09549       -7.84843
H         68.81207      -32.97098       -9.29006
H         69.28705      -33.35393       -7.61555
N         71.03594      -31.50796       -8.91100
C         71.99346      -30.41145       -9.09589
C         71.44510      -29.30772      -10.06171
O         70.20659      -28.82084       -9.66033
C         73.31515      -30.94026       -9.72133
C         74.11699      -31.87872       -8.85378
C         74.60628      -31.45024       -7.60795
C         74.44483      -33.16664       -9.31170
C         75.41260      -32.29279       -6.83686
C         75.25389      -34.00674       -8.53959
C         75.74390      -33.57286       -7.30343
O         76.53791      -34.38779       -6.57971
H         71.27221      -32.43255       -9.30435
H         72.21790      -29.95766       -8.10611
H         73.99922      -30.09098       -9.92913
H         73.08287      -31.41669      -10.69843
H         74.38065      -30.45749       -7.24031
H         74.09343      -33.51534      -10.27486
H         75.78999      -31.94434       -5.88369
H         75.51178      -34.99140       -8.90931
H         76.91314      -34.11847       -5.72903
N         72.42086      -28.20389      -10.20036
C         72.02093      -26.96603      -10.91222
C         71.53297      -27.26249      -12.32180
O         70.57063      -27.99850      -12.47813
C         70.98759      -26.06973      -10.13846
C         70.73207      -24.71085      -10.85124
C         71.39078      -25.83150       -8.67099
C         71.94411      -23.78177      -10.97057
H         72.85713      -27.96659       -9.28037
H         72.94970      -26.36474      -10.98512
H         70.00053      -26.56934      -10.11911
H         69.94456      -24.16081      -10.29235
H         70.34079      -24.89836      -11.87118
H         72.39129      -25.35812       -8.59803
H         70.64292      -25.18089       -8.16960
H         71.40786      -26.78444       -8.10361
H         72.34181      -23.51234       -9.97156
H         72.75013      -24.23539      -11.57860
H         71.63113      -22.84522      -11.47788
N         72.11719      -26.65177      -13.39393
C         71.63426      -26.80134      -14.76309
C         72.72392      -27.28000      -15.71552
O         72.41778      -27.46026      -16.88763
C         71.07675      -25.44464      -15.22372
O         70.48399      -25.55688      -16.48861
H         72.89170      -25.99274      -13.22731
H         70.80291      -27.53948      -14.80124
H         71.89509      -24.69136      -15.25200
H         70.30909      -25.11797      -14.49218
H         70.04367      -24.68580      -16.66714
N         74.01387      -27.49826      -15.32101
C         75.04413      -27.92345      -16.26622
C         74.73043      -29.29797      -16.83613
O         73.93515      -30.00718      -16.23460
C         76.40648      -27.95996      -15.57539
H         74.28565      -27.33490      -14.34074
H         75.06392      -27.17367      -17.08709
H         76.38417      -28.65113      -14.70668
H         77.17806      -28.32515      -16.27152
H         76.67837      -26.94217      -15.22084
N         75.24116      -29.75906      -18.01700
C         76.12153      -29.03680      -18.93546
C         77.25977      -29.94425      -19.38629
O         76.97057      -31.08044      -19.73790
C         75.30066      -28.65050      -20.16901
H         74.89864      -30.68046      -18.33490
H         76.50073      -28.09270      -18.50442
H         74.46130      -27.98707      -19.86900
H         75.93684      -28.10280      -20.89740
H         74.87840      -29.55061      -20.66641
N         78.56414      -29.55546      -19.50076
C         79.09094      -28.21391      -19.27300
C         79.42003      -28.01899      -17.81345
O         78.96870      -27.04337      -17.23020
C         80.36308      -27.98563      -20.12139
C         80.04797      -28.01899      -21.62856
C         81.25924      -27.76955      -22.48615
O         81.14018      -27.75413      -23.70071
O         82.47367      -27.56191      -21.93934
H         79.21749      -30.25751      -19.88511
H         78.36442      -27.44132      -19.61012
H         81.13217      -28.75176      -19.87681
H         80.77908      -26.98184      -19.87916
H         79.29366      -27.23426      -21.85650
H         79.62409      -29.00728      -21.90589
N         80.21806      -28.90603      -17.15711
C         80.54801      -28.75610      -15.75697
H         81.09737      -27.80486      -15.59546
H         79.61997      -28.75870      -15.14609
H         81.19030      -29.60047      -15.42730
H         80.59273      -29.72409      -17.66117
Ca        68.65287      -30.21216      -10.59510
O         68.35756      -32.77600      -12.55291
H         68.13747      -32.71407      -13.51615
H         67.86405      -33.57316      -12.23545
O         71.07364      -31.42889      -12.48630
H         71.72672      -30.75255      -12.79688
H         71.01150      -32.07506      -13.23358
O         69.26947      -30.12870      -14.48088
H         69.95958      -30.07369      -15.18907
H         68.51362      -30.60558      -14.90691

Ca 1.0



