%chk=apoCaM-CA-Ng.loop1.water2.frame894.chk
%nprocshared=20
%mem=10GB
%nosave
#b3lyp/svp scf=(tight,noincore,xqc) Test 
#IOP(5/87=12) Density=Current Pop=(MK,readradii) iop(6/33=2) iop(6/42=6)

apoCaM-CA-Ng.loop1.water2.frame894 

   0  1 
C         18.95278        3.37450       54.17039
C         18.30780        4.72586       54.25080
O         17.31627        4.86825       54.95243
H         19.99477        3.43929       54.54688
H         18.39618        2.63627       54.78744
H         18.96327        3.02274       53.11754
N         18.81985        5.77031       53.53893
C         18.24766        7.11584       53.56876
C         17.63581        7.51848       52.19651
O         17.72368        6.48084       51.25807
C         19.27837        8.15629       54.06063
C         20.53499        8.31218       53.23644
O         20.74188        7.63845       52.24203
O         21.45941        9.21278       53.61893
H         19.63580        5.58725       52.93690
H         17.42996        7.14735       54.32126
H         19.58981        7.87717       55.09007
H         18.77701        9.14697       54.10944
N         16.25647        8.01889       52.35378
C         15.52103        8.25012       51.09195
C         16.14530        9.35774       50.24455
O         16.12437       10.51145       50.65155
C         14.04918        8.65286       51.39426
C         13.21086        7.55310       52.07702
C         11.78248        8.03847       52.35912
C         10.93447        6.91975       52.98278
N          9.58355        7.39103       53.28646
H         15.75219        7.27115       52.87694
H         15.50006        7.30723       50.50113
H         13.54567        8.90131       50.43329
H         14.04740        9.56447       52.03332
H         13.64753        7.25790       53.05177
H         13.18009        6.66360       51.41091
H         11.30431        8.37052       51.41232
H         11.82482        8.90158       53.06034
H         11.41319        6.56022       53.92115
H         10.87435        6.06620       52.27126
H          9.62311        8.15620       53.99860
H          9.11798        7.74056       52.41768
H          9.02350        6.59781       53.67469
N         16.68563        9.06448       49.02481
C         17.15197       10.06393       48.05795
C         16.58501        9.75121       46.66748
O         16.16984        8.62426       46.43700
C         18.68825        9.99312       47.94112
C         19.40497       10.46342       49.17056
O         20.07884        9.58136       49.92597
O         19.39888       11.64518       49.47646
H         16.75995        8.07072       48.76039
H         16.84240       11.08220       48.37534
H         19.07544       10.60367       47.10147
H         18.97089        8.94383       47.71721
N         16.60601       10.65327       45.64051
C         16.88093       12.06979       45.80400
C         15.73072       12.73835       46.51726
O         14.72601       12.08923       46.78210
H         16.34619       10.33123       44.69677
H         16.96494       12.55148       44.80559
H         17.83565       12.23061       46.33765
N         15.80267       14.05249       46.86082
C         14.69397       14.72372       47.52209
C         13.71773       15.19881       46.46216
O         14.04333       16.12801       45.73588
C         15.22374       15.88106       48.39676
C         14.17222       16.57962       49.21905
O         13.00035       16.23845       49.17969
O         14.53823       17.59397       50.02521
H         16.67094       14.57393       46.66310
H         14.20381       14.00074       48.21402
H         15.73077       16.63100       47.75139
H         15.97817       15.46869       49.10193
N         12.53097       14.55457       46.26635
C         11.57828       14.94615       45.23605
C         11.62273       14.04437       44.01817
O         10.86461       14.29833       43.09228
H         12.31818       13.71344       46.82436
H         11.79720       15.97116       44.86813
H         10.55942       14.96610       45.67755
N         12.51353       13.01702       43.91222
C         12.69549       12.21713       42.70332
C         14.10042       12.45364       42.15678
O         14.84500       13.22255       42.75488
C         12.34457       10.73147       42.98266
C         13.18325       10.10917       44.11558
O         10.96688       10.66842       43.27705
H         13.14631       12.81908       44.69938
H         12.00652       12.55499       41.89791
H         12.52704       10.14134       42.05842
H         10.77761        9.85913       43.81832
H         14.25985       10.18662       43.88183
H         12.96965       10.60028       45.08748
H         12.93087        9.03214       44.22414
N         14.52238       11.85858       41.00210
C         15.83158       12.12916       40.39936
C         15.73180       12.61063       38.94378
O         16.73175       13.09376       38.43416
C         16.76759       10.89351       40.58712
C         18.22029       11.19301       40.12967
C         16.20544        9.63382       39.89907
C         19.22973       10.13410       40.57596
H         13.89276       11.18076       40.55120
H         16.30950       12.96827       40.95194
H         16.80220       10.70138       41.68357
H         18.54764       12.15414       40.58277
H         18.27426       11.28732       39.02433
H         16.83538        8.74744       40.10840
H         15.19742        9.38571       40.28697
H         16.14302        9.78019       38.80019
H         19.22312       10.04281       41.68280
H         19.01998        9.14602       40.12117
H         20.24674       10.44291       40.25909
N         14.58869       12.49510       38.20060
C         14.50014       12.90096       36.79988
C         14.43022       11.66727       35.92598
O         13.65257       10.76151       36.19037
C         13.29387       13.82639       36.54475
C         13.48097       15.17272       37.24796
O         13.18296       14.06107       35.16170
H         13.75556       12.04747       38.60109
H         15.40304       13.47246       36.49013
H         12.37313       13.31865       36.91762
H         12.22615       14.24386       34.97028
H         13.57769       15.03795       38.34433
H         14.39522       15.67718       36.86272
H         12.61021       15.82919       37.03948
N         15.23114       11.60783       34.82811
C         15.32758       10.47588       33.92390
C         16.78704       10.05980       33.83631
O         17.07792        8.89677       34.08049
C         14.71796       10.84590       32.54956
C         14.74803        9.66799       31.56746
O         15.38106       11.94864       31.98726
H         15.79937       12.43741       34.60770
H         14.73029        9.61554       34.30465
H         13.64735       11.10364       32.73919
H         14.70761       12.45525       31.46175
H         14.20874        8.79466       31.99307
H         14.24813        9.95660       30.61840
H         15.79180        9.36850       31.33759
N         17.76261       10.96732       33.52026
C         19.17124       10.62190       33.39212
C         20.02827       11.32994       34.43263
O         19.53514       12.14324       35.20291
C         19.67353       11.02721       31.98729
C         18.88260       10.37674       30.84595
C         19.55459       10.60124       29.47702
C         19.70401       12.06956       29.03245
N         18.41229       12.72016       28.81434
H         17.50928       11.95136       33.35095
H         19.31730        9.52876       33.53197
H         20.73474       10.72244       31.88136
H         19.61790       12.13364       31.88627
H         17.83728       10.75105       30.84061
H         18.85330        9.27961       31.01966
H         18.97861       10.05030       28.70335
H         20.57172       10.15359       29.51951
H         20.26999       12.07705       28.07455
H         20.30324       12.64899       29.76733
H         17.85914       12.18693       28.10465
H         17.87737       12.78973       29.70866
H         18.57882       13.68632       28.44987
N         21.36468       11.06485       34.46340
C         22.33726       11.75333       35.29975
C         22.07700       11.56467       36.79263
O         21.99764       12.57545       37.47626
C         23.76466       11.33591       34.86601
C         24.87654       12.12035       35.57130
C         26.21477       11.75894       34.98786
O         26.90179       12.61392       34.45157
O         26.65873       10.48831       35.04303
H         21.72454       10.35561       33.80687
H         22.27205       12.84243       35.07240
H         23.84845       11.54397       33.77492
H         23.93184       10.25187       35.00598
H         24.87850       11.89210       36.65794
H         24.70100       13.21018       35.43504
N         21.92472       10.35688       37.41114
C         21.89405        9.07379       36.74477
H         21.05074        9.03692       36.02560
H         22.84978        8.85902       36.23742
H         21.72709        8.27187       37.49540
H         21.78003       10.35300       38.43244
Ca        19.22678        7.50412       49.92295
O         18.32344        6.37906       47.23506
H         19.13339        5.84622       47.03620
H         18.01156        6.69660       46.35165
O         18.81944        4.30741       49.47139
H         17.88356        4.50207       49.21244
H         18.84597        3.32444       49.58297

Ca 1.0



