%chk=apoCaM-CA-Ng.loop2.water3.frame25.chk
%nprocshared=20
%mem=10GB
%nosave
#b3lyp/svp scf=(tight,noincore,xqc) Test 
#IOP(5/87=12) Density=Current Pop=(MK,readradii) iop(6/33=2) iop(6/42=6)

apoCaM-CA-Ng.loop2.water3.frame25 

   -2  1 
C         66.53451       30.34851       50.11903
C         65.39350       30.11591       51.06361
O         65.63016       29.74920       52.20600
H         67.50634       30.13591       50.61498
H         66.43071       29.67691       49.24084
H         66.53025       31.40384       49.77631
N         64.10948       30.31414       50.64908
C         62.96048       30.08057       51.52049
C         62.82771       28.60466       51.89594
O         62.15238       28.30687       52.87066
C         61.67019       30.57336       50.83339
C         60.46752       30.48621       51.73022
O         60.43590       31.17620       52.88637
O         59.51120       29.79829       51.41076
H         63.95447       30.65777       49.68802
H         63.12520       30.68248       52.44310
H         61.50012       29.97678       49.90875
H         61.79623       31.63761       50.53870
N         63.43759       27.62976       51.15760
C         63.40802       26.20313       51.45781
C         64.06967       25.92051       52.79382
O         63.53326       25.17616       53.60347
C         61.98402       25.63443       51.35001
H         63.97855       27.89918       50.32336
H         64.02680       25.69459       50.68526
H         61.56926       25.84529       50.34172
H         61.99751       24.53401       51.49972
H         61.30962       26.08048       52.11005
N         65.25408       26.52774       53.08840
C         66.01052       26.34190       54.31828
C         65.14161       26.47038       55.56102
O         65.19874       25.60728       56.42815
C         66.78674       25.01042       54.26659
C         67.77598       25.00254       53.13332
O         67.69702       24.16307       52.25125
O         68.76414       25.91823       53.09459
H         65.64375       27.19421       52.40618
H         66.76455       27.15942       54.37746
H         66.07428       24.16269       54.16358
H         67.35729       24.87374       55.20598
N         64.30683       27.53676       55.72209
C         63.53342       27.72770       56.93962
C         64.40068       28.17063       58.10756
O         63.88558       28.26829       59.21185
H         64.20991       28.22654       54.96167
H         62.98992       26.78676       57.17766
H         62.77564       28.52454       56.78046
N         65.70966       28.51548       57.92682
C         66.58567       29.02483       58.97769
C         66.01007       30.27748       59.59977
O         65.57566       31.16525       58.88307
C         67.97806       29.32534       58.38727
C         68.66498       28.03995       58.00506
N         69.03680       27.15974       58.96426
O         68.88840       27.79020       56.83107
H         66.10815       28.45923       56.97984
H         66.70301       28.25976       59.77544
H         68.62365       29.84387       59.12874
H         67.86326       29.99516       57.50442
H         68.86903       27.36330       59.96029
H         69.50984       26.28031       58.71948
N         65.98660       30.40272       60.95533
C         65.39945       31.52361       61.66382
C         66.02741       32.85431       61.31240
O         67.23167       33.01084       61.45695
H         66.39555       29.64971       61.53009
H         65.54075       31.36021       62.75484
H         64.30662       31.54211       61.46876
N         65.23237       33.88927       60.91197
C         65.72423       35.25038       60.69449
C         66.61888       35.37575       59.46322
O         67.24359       36.41491       59.30228
C         64.50913       36.21415       60.59199
C         64.88598       37.70052       60.60430
O         63.77080       35.91744       59.43316
H         64.21665       33.71759       60.85362
H         66.30907       35.52993       61.59955
H         63.88146       36.03152       61.49643
H         62.85476       36.27330       59.57097
H         65.46643       37.93870       61.52052
H         65.46964       37.98856       59.70853
H         63.96058       38.31424       60.60694
N         66.70304       34.38513       58.53199
C         67.48186       34.49972       57.30202
C         68.56287       33.44443       57.27385
O         68.62314       32.62582       58.18352
C         66.54510       34.37434       56.05222
C         65.90985       32.95786       55.91726
C         65.47250       35.47628       56.09035
C         65.12263       32.75355       54.62074
H         66.17033       33.52098       58.67559
H         67.99181       35.48669       57.25083
H         67.16538       34.54934       55.14681
H         65.23727       32.74324       56.77173
H         66.71598       32.19497       55.91369
H         64.78799       35.32765       56.95172
H         65.95227       36.47336       56.18154
H         64.87116       35.48493       55.15973
H         64.23397       33.41421       54.57833
H         65.77142       32.94427       53.73953
H         64.76270       31.70345       54.57058
N         69.41911       33.36824       56.21555
C         70.31901       32.24438       56.02619
C         71.79179       32.66555       55.90640
O         72.62851       31.80570       55.67020
C         69.81891       31.48454       54.77760
C         70.22204       30.04103       54.76830
O         69.95996       29.34920       53.79711
O         70.79086       29.47456       55.85077
H         69.35917       34.07149       55.46246
H         70.23500       31.56061       56.89670
H         70.16702       32.01462       53.86262
H         68.70742       31.46865       54.75498
N         72.18875       33.96129       56.09901
C         73.58385       34.40706       56.03371
C         74.10799       34.32719       54.60789
O         73.48993       34.94100       53.75539
C         73.68224       35.86336       56.54504
C         75.09902       36.39004       56.55348
C         75.86347       36.34489       57.73084
C         75.66553       36.94177       55.38928
C         77.17283       36.83516       57.74116
C         76.97227       37.43774       55.40617
C         77.72610       37.38286       56.58079
H         71.47700       34.66157       56.35053
H         74.17958       33.78322       56.73167
H         73.28702       35.87325       57.58453
H         73.03597       36.55221       55.95683
H         75.44912       35.92236       58.63744
H         75.09469       36.99879       54.47134
H         77.75818       36.79171       58.65016
H         77.39969       37.86700       54.50896
H         78.73802       37.76652       56.59247
N         75.25991       33.66662       54.26167
C         75.80044       33.61015       52.90497
C         74.86340       32.97063       51.88924
O         74.77922       33.47055       50.77646
C         77.09495       32.80519       53.06153
C         77.52799       33.21115       54.45412
C         76.20663       33.11218       55.21036
H         76.05745       34.64697       52.58847
H         76.87130       31.71518       53.09956
H         77.84295       32.99222       52.26009
H         78.36062       32.61918       54.88841
H         77.83703       34.28424       54.42110
H         75.94074       32.05185       55.41593
H         76.30733       33.69770       56.14802
N         74.09307       31.88938       52.21459
C         73.12496       31.27628       51.29384
C         71.96959       32.20997       50.89895
O         71.14067       31.79201       50.10127
C         72.51518       30.00715       51.92857
C         73.51169       28.84158       52.04650
C         72.85255       27.65972       52.70060
O         71.81796       27.19399       52.24800
O         73.34218       27.18727       53.85810
H         74.19205       31.49663       53.16390
H         73.64788       30.97956       50.35894
H         71.67229       29.64216       51.30006
H         72.11578       30.28096       52.92528
H         74.38970       29.14876       52.65339
H         73.85655       28.54733       51.03397
N         71.83269       33.46810       51.39654
C         70.74429       34.34781       51.03379
H         69.77731       33.90155       51.34577
H         70.86529       35.32541       51.55071
H         70.74553       34.52716       49.93823
H         72.51266       33.82945       52.05672
Ca        71.95597       27.61059       55.53590
O         72.28133       24.48431       55.09875
H         73.21757       24.73148       54.89369
H         72.32721       23.52566       55.34083
O         69.56355       24.68391       56.65238
H         68.72072       24.63638       57.17042
H         69.62498       23.80520       56.20166
O         72.19978       26.50376       58.34756
H         73.04644       26.46907       57.83574
H         72.04107       25.56758       58.62764

Ca 1.0



