%chk=apoCaM-CA-Ng.loop1.water3.frame1069.chk
%nprocshared=20
%mem=10GB
%nosave
#b3lyp/svp scf=(tight,noincore,xqc) Test 
#IOP(5/87=12) Density=Current Pop=(MK,readradii) iop(6/33=2) iop(6/42=6)

apoCaM-CA-Ng.loop1.water3.frame1069 

   0  1 
C         10.70632       51.40233       11.03204
C         10.30190       50.28249       11.94050
O         10.13091       50.51678       13.12888
H         11.69001       51.16601       10.57336
H          9.94717       51.53086       10.23413
H         10.80104       52.35315       11.59975
N         10.16108       49.01948       11.44510
C          9.85104       47.86741       12.28623
C         11.05307       46.94897       12.33787
O         10.94471       45.75006       12.10813
C          8.53306       47.18776       11.84895
C          8.51383       46.61243       10.45226
O          9.49166       46.66124        9.72290
O          7.38967       46.02278       10.00440
H         10.33758       48.86844       10.44133
H          9.69770       48.19888       13.33167
H          7.71846       47.94009       11.92196
H          8.30239       46.36663       12.56226
N         12.26068       47.48558       12.65450
C         13.48433       46.71400       12.80866
C         13.34375       45.78846       14.00900
O         13.50165       44.59329       13.82028
C         14.73109       47.63344       12.89617
C         14.85435       48.49246       11.62288
C         15.98461       49.51767       11.72019
C         16.01127       50.38839       10.45525
N         17.03160       51.42918       10.55182
H         12.30069       48.50581       12.80007
H         13.64064       46.09710       11.89346
H         15.64691       47.01165       13.00243
H         14.69337       48.30381       13.77276
H         13.91919       49.06610       11.46034
H         15.00973       47.82959       10.74360
H         16.96000       49.00146       11.85148
H         15.80105       50.17127       12.60178
H         15.01791       50.87309       10.31630
H         16.21360       49.74828        9.56782
H         17.02100       51.99685        9.67370
H         16.82325       52.05816       11.36142
H         17.97641       50.99783       10.66988
N         12.97901       46.20871       15.26184
C         12.70097       47.58458       15.66848
C         11.21539       47.80257       15.92621
O         10.43428       46.86496       15.80547
C         13.58154       47.96644       16.86640
C         13.35801       47.07638       18.04542
O         12.10866       46.67581       18.34037
O         14.27408       46.85760       18.81870
H         12.84657       45.47364       15.97627
H         12.93560       48.30261       14.87921
H         13.35306       49.00780       17.17589
H         14.65766       47.94517       16.58610
N         10.74294       49.05275       16.19017
C          9.32443       49.36669       16.22603
C          8.57858       48.86615       17.44095
O          9.17126       48.39151       18.39503
H         11.40795       49.84189       16.23270
H          8.85335       48.96143       15.30837
H          9.19063       50.46979       16.20793
N          7.21833       48.96495       17.43129
C          6.33208       48.64062       18.55088
C          5.23034       49.70898       18.64699
O          5.10579       50.49986       17.72346
C          5.69476       47.26078       18.27454
C          6.72107       46.16640       18.33343
O          6.94702       45.47652       17.35238
O          7.38006       45.92801       19.48407
H          6.78143       49.26382       16.54626
H          6.90648       48.61784       19.50069
H          5.20281       47.27762       17.27622
H          4.91790       47.00326       19.01296
N          4.34266       49.80899       19.68377
C          4.40017       49.09738       20.94689
C          5.50169       49.65743       21.80295
O          5.47988       50.85318       22.06434
H          3.58124       50.50061       19.58953
H          4.46673       48.00485       20.81236
H          3.45710       49.29070       21.50336
N          6.49235       48.86004       22.28660
C          7.57839       49.36301       23.12273
C          8.89242       49.25326       22.37650
O          8.98358       48.50178       21.41590
C          7.57078       48.63423       24.49024
C          8.72206       49.04819       25.41517
O          7.61356       47.24627       24.29226
H          6.48708       47.85816       22.03754
H          7.43100       50.44737       23.32201
H          6.60647       48.90694       24.98133
H          7.18594       46.82618       25.08410
H          8.70950       50.14413       25.58939
H          8.62073       48.53430       26.39396
H          9.70083       48.75132       24.98148
N          9.92064       50.09141       22.70773
C         11.20499       50.16290       22.02524
C         12.04685       48.87165       22.25892
O         11.29851       47.71504       22.47385
C         11.09363       50.51384       20.49737
C         10.30523       51.82102       20.17765
C         12.51251       50.68474       19.91236
C          8.78185       51.72421       20.28714
H          9.77463       50.76319       23.47640
H         11.76869       51.01152       22.47394
H         10.62520       49.68126       19.94108
H         10.48189       52.08177       19.11013
H         10.68379       52.66351       20.79645
H         12.46149       50.90306       18.82338
H         13.04357       51.52387       20.41238
H         13.11372       49.75971       20.02730
H          8.43751       51.57125       21.32153
H          8.32934       52.67750       19.94020
H          8.40276       50.90972       19.63319
N         13.13576       48.99348       23.23247
C         14.05301       47.82765       23.11844
C         13.68655       46.70269       24.08960
O         14.36044       45.68170       24.07144
C         15.52785       48.25339       23.38713
C         15.72571       48.79925       24.80784
O         15.93411       49.23356       22.46615
H         13.64822       49.86220       22.95785
H         14.02612       47.41716       22.08006
H         16.19800       47.36764       23.28266
H         16.05172       48.77812       21.59192
H         15.46856       48.02943       25.56605
H         16.78836       49.08277       24.95690
H         15.09191       49.69437       24.98003
N         12.69993       46.84564       25.02147
C         12.49842       45.88889       26.10757
C         12.06967       44.51917       25.60673
O         10.98251       44.39085       25.06440
C         11.47125       46.44630       27.12703
C         11.23569       45.49142       28.30120
O         11.94337       47.66504       27.64753
H         12.14407       47.71154       25.02590
H         13.46787       45.79077       26.64597
H         10.48592       46.59417       26.62174
H         11.51593       48.39881       27.13378
H         12.18823       45.29514       28.83745
H         10.51078       45.94508       29.00951
H         10.81133       44.52677       27.95152
N         12.87900       43.43622       25.80687
C         12.51769       42.06055       25.48332
C         12.15962       41.94169       24.01366
O         11.02996       41.60393       23.68518
C         11.40551       41.56434       26.44056
C         11.20018       40.03913       26.35102
C         10.12537       39.56186       27.33491
C          9.96755       38.03511       27.27980
N          8.93428       37.58071       28.20987
H         13.80636       43.58522       26.23305
H         13.40652       41.41966       25.68263
H         10.45268       42.10123       26.24334
H         11.72051       41.79340       27.48292
H         12.16167       39.53436       26.59386
H         10.90038       39.74257       25.32454
H          9.15631       40.04344       27.07905
H         10.41103       39.85765       28.36818
H         10.93526       37.55299       27.54504
H          9.69276       37.72347       26.24747
H          8.85922       36.53906       28.15641
H          9.18532       37.85153       29.18847
H          8.01105       37.99975       27.95307
N         13.09528       42.22750       23.06750
C         12.81677       42.17901       21.63766
C         12.99940       43.56121       21.02280
O         11.99339       44.08735       20.56882
C         13.60790       41.04501       20.94925
C         13.12196       39.67204       21.44618
C         13.94191       38.55859       20.86541
O         13.41942       37.70848       20.16277
O         15.25707       38.47658       21.14479
H         14.03789       42.48992       23.38666
H         11.74588       41.92359       21.46705
H         14.69123       41.12715       21.13798
H         13.44516       41.09298       19.85000
H         12.05297       39.54466       21.16123
H         13.19862       39.60707       22.55200
N         14.16761       44.26718       20.94598
C         15.48969       43.86651       21.37578
H         15.88069       44.60873       22.10072
H         15.53270       42.88402       21.85457
H         16.16227       43.85575       20.49132
H         14.11674       45.20120       20.52215
Ca        11.31481       46.96002       20.38105
O          8.88512       43.32873       20.72783
H          9.52094       42.69758       20.30691
H          8.83650       43.03681       21.67252
O          9.96676       44.34393       18.00794
H          9.72889       45.16124       18.51294
H         10.15893       44.66547       17.09259
O          9.41118       45.53386       22.78096
H         10.21927       45.01628       22.53997
H          9.68394       46.04777       23.58126

Ca 1.0



