%chk=apoCaM-CA-Ng.loop4.water3.frame292.chk
%nprocshared=20
%mem=10GB
%nosave
#b3lyp/svp scf=(tight,noincore,xqc) Test 
#IOP(5/87=12) Density=Current Pop=(MK,readradii) iop(6/33=2) iop(6/42=6)

apoCaM-CA-Ng.loop4.water3.frame292 

   -3  1 
C         48.55290       37.36402       10.28060
C         48.28303       36.82607        8.91070
O         48.83814       37.35115        7.96700
H         49.26902       38.21440       10.22767
H         47.60746       37.72100       10.73568
H         48.99992       36.56781       10.91080
N         47.45757       35.75743        8.72944
C         47.17814       35.13654        7.43663
C         48.43763       34.59779        6.79228
O         48.79734       35.02782        5.71193
C         46.22680       35.97321        6.53365
C         46.50947       37.41617        6.16049
O         47.46389       37.78615        5.27982
O         45.71100       38.26667        6.52109
H         47.03329       35.32678        9.56487
H         46.57238       34.22074        7.62737
H         45.25998       35.98880        7.08577
H         46.03761       35.40565        5.59597
N         49.11625       33.59139        7.42694
C         50.30340       32.87065        6.95754
C         49.97275       31.99834        5.74558
O         49.90443       30.78839        5.91532
C         51.52962       33.80888        6.80637
C         52.82269       33.07613        6.35508
C         51.76405       34.57177        8.12605
C         53.34273       32.00993        7.32373
H         48.74701       33.28636        8.34127
H         50.55614       32.15601        7.77357
H         51.29963       34.55590        6.02382
H         53.63083       33.82811        6.21869
H         52.64712       32.59898        5.36772
H         50.88702       35.20358        8.37787
H         51.93781       33.87570        8.97186
H         52.63843       35.23748        8.04584
H         53.60449       32.45325        8.30647
H         52.60150       31.19872        7.46476
H         54.26225       31.55598        6.90315
N         49.72869       32.51838        4.50926
C         49.17825       31.73489        3.40924
C         50.24743       31.11972        2.50258
O         50.17753       29.90855        2.34286
C         48.09144       32.53363        2.66073
C         46.90178       32.88545        3.52337
O         45.97229       33.50787        3.03568
O         46.83602       32.51465        4.81789
H         49.83172       33.52538        4.35773
H         48.61524       30.86580        3.82630
H         47.71656       31.92118        1.81124
H         48.50810       33.47752        2.27564
N         51.28528       31.77000        1.88913
C         51.67054       33.16203        2.02285
C         50.88492       34.12146        1.15119
O         49.98300       33.69146        0.44763
H         51.94685       31.18009        1.35925
H         52.71449       33.24595        1.65808
H         51.68400       33.43185        3.09111
N         51.19961       35.45333        1.08215
C         52.32114       36.06972        1.79915
C         52.14319       35.94590        3.30061
O         51.01105       35.78989        3.73384
C         52.48920       37.55349        1.37621
C         51.31761       38.42980        1.74587
O         51.01154       38.64771        3.03876
O         50.66423       38.98154        0.87499
H         50.63608       36.04270        0.44867
H         53.24170       35.52904        1.49523
H         52.63222       37.58097        0.27356
H         53.39408       37.99656        1.83505
N         53.17133       36.00225        4.19238
C         54.58467       36.12238        3.90057
C         55.20753       34.80301        3.53923
O         54.51073       33.81443        3.36520
H         52.94023       35.91556        5.18378
H         55.09320       36.41716        4.84069
H         54.79774       36.91711        3.16081
N         56.56299       34.72536        3.46219
C         57.28950       33.50900        3.12104
C         58.18621       33.02219        4.25732
O         58.81070       31.98412        4.08356
C         58.05682       33.70660        1.79010
C         59.29309       34.63201        1.81290
C         59.01905       36.05513        2.22413
N         58.13882       36.82958        1.54940
O         59.59758       36.51541        3.19394
H         57.09148       35.58022        3.67178
H         56.56148       32.68978        2.93100
H         57.33525       34.06295        1.02253
H         58.41701       32.70955        1.45385
H         59.72494       34.65029        0.78929
H         60.05570       34.19184        2.49214
H         57.62805       36.46649        0.73326
H         57.95734       37.79626        1.85985
N         58.27549       33.68176        5.45458
C         59.07124       33.20327        6.58720
C         60.18565       34.17115        6.98235
O         60.95704       33.81782        7.86270
C         58.15514       32.85049        7.79415
C         57.26104       31.65014        7.45252
C         57.29161       34.03346        8.26555
H         57.73851       34.54804        5.59178
H         59.60718       32.26827        6.30910
H         58.80201       32.53719        8.64381
H         56.63959       31.36799        8.32911
H         56.59453       31.88396        6.59678
H         57.88788       30.77263        7.18300
H         56.71020       33.74093        9.16574
H         57.92924       34.90205        8.53084
H         56.56300       34.34142        7.48621
N         60.38474       35.36132        6.34163
C         61.56368       36.19962        6.55582
C         61.21830       37.60477        7.03097
O         61.93725       38.10091        7.88999
C         62.36833       36.29280        5.24381
C         62.91697       34.97909        4.73605
N         63.61112       34.95400        3.57538
O         62.74722       33.94070        5.35770
H         59.73050       35.65189        5.60607
H         62.25461       35.75789        7.30957
H         63.23376       36.97556        5.39605
H         61.71969       36.71093        4.45565
H         63.76347       35.81991        3.03729
H         63.99392       34.06919        3.21100
N         60.18948       38.33644        6.50524
C         59.98210       39.74350        6.86868
C         58.53967       40.20308        6.68989
O         57.75158       39.45726        6.13276
C         60.93048       40.62927        6.02160
C         60.55824       40.55365        4.55408
C         61.09865       39.56069        3.72547
C         59.61736       41.44739        4.01959
C         60.68907       39.44693        2.39280
C         59.20491       41.33544        2.68937
C         59.73284       40.33118        1.87255
O         59.31274       40.22410        0.59585
H         59.57156       37.89683        5.80769
H         60.19736       39.86174        7.95461
H         61.98526       40.31134        6.16839
H         60.87887       41.68515        6.36092
H         61.82812       38.87265        4.11769
H         59.19420       42.22113        4.64203
H         61.10678       38.66591        1.76990
H         58.46648       42.02377        2.29787
H         59.64049       39.53379        0.00198
N         58.16421       41.45543        7.11420
C         56.83344       42.07599        7.03958
C         55.86465       41.48285        8.05307
O         55.42367       42.20635        8.93639
C         56.27093       42.09532        5.59434
C         54.90218       42.79245        5.44655
C         54.89603       44.27308        5.73776
O         56.02032       44.93606        6.07088
O         53.84892       44.89265        5.64232
H         58.90134       42.04659        7.52865
H         56.96879       43.13210        7.35389
H         56.14015       41.05497        5.23553
H         56.99070       42.60168        4.92031
H         54.16083       42.28701        6.10134
H         54.56591       42.66541        4.39458
N         55.49059       40.18025        7.99476
C         54.59741       39.53577        8.94348
C         55.15677       39.68161       10.34371
O         54.47041       40.21225       11.20560
C         54.44310       38.03186        8.60929
C         54.00358       37.71100        7.17069
C         52.64338       38.21921        6.80151
O         51.68729       37.32479        6.49768
O         52.42457       39.41479        6.70310
H         55.86763       39.61386        7.24539
H         53.59703       40.01867        8.89232
H         53.72307       37.56931        9.31985
H         55.42458       37.52785        8.74763
H         54.01816       36.60932        7.07873
H         54.72479       38.07476        6.41598
N         56.42444       39.26195       10.62207
C         57.05078       39.40668       11.91905
H         57.95578       40.04198       11.81566
H         56.37684       39.87670       12.66515
H         57.35415       38.40755       12.29412
H         56.99184       38.83894        9.87195
Ca        49.68955       37.69387        5.55687
O         49.71428       40.49814        6.68287
H         49.90691       41.31350        7.20929
H         50.24077       40.61066        5.85140
O         48.31862       40.06859        3.57681
H         48.24934       40.67487        4.35603
H         47.87888       40.56227        2.84046
O         48.40629       36.62610        2.62336
H         48.36116       36.76834        1.64484
H         47.74981       35.90727        2.80254

Ca 1.0



