%chk=apoCaM-CA-Ng.loop4.water7.frame1045.chk
%nprocshared=20
%mem=10GB
%nosave
#b3lyp/svp scf=(tight,noincore,xqc) Test 
#IOP(5/87=12) Density=Current Pop=(MK,readradii) iop(6/33=2) iop(6/42=6)

apoCaM-CA-Ng.loop4.water7.frame1045 

   -3  1 
C         64.56545       62.46855       55.94389
C         65.12563       62.14831       54.58208
O         64.35290       61.78632       53.70685
H         63.46301       62.32895       55.95265
H         65.00568       61.78867       56.70233
H         64.77806       63.51767       56.22622
N         66.46028       62.22307       54.30004
C         67.47727       62.64044       55.26492
C         67.40482       64.12983       55.59335
O         68.13930       64.55867       56.47354
C         68.89292       62.33638       54.72620
C         69.08459       60.87247       54.44441
O         68.97623       59.97259       55.43952
O         69.35218       60.49374       53.31529
H         66.76301       61.93143       53.35682
H         67.33679       62.05318       56.19947
H         69.65686       62.63997       55.47466
H         69.06887       62.92215       53.79803
N         66.57361       64.98801       54.92755
C         66.50165       66.41617       55.23410
C         67.78971       67.17911       54.91379
O         67.84045       68.35546       55.24540
C         65.25161       67.09277       54.56343
C         65.13475       66.98914       53.01365
C         63.96170       66.52259       55.18136
C         66.26017       67.65152       52.22914
H         65.95179       64.61296       54.20270
H         66.35432       66.51658       56.33357
H         65.26629       68.17302       54.83203
H         64.19808       67.50657       52.70946
H         65.04484       65.93324       52.68432
H         63.84354       65.44449       54.94655
H         63.96986       66.65058       56.28473
H         63.07357       67.06307       54.78876
H         66.36489       68.71779       52.52000
H         67.20988       67.11538       52.38407
H         66.03198       67.59913       51.14350
N         68.86212       66.60409       54.28434
C         70.06790       67.34952       53.91238
C         71.13081       66.38957       53.38127
O         70.80996       65.52732       52.57500
C         69.73103       68.43598       52.85744
C         70.86497       69.39637       52.62091
O         71.92568       69.01060       52.16451
O         70.70391       70.70454       52.89891
H         68.81842       65.60625       54.04314
H         70.46284       67.85872       54.82008
H         68.87967       69.05073       53.20708
H         69.42936       67.96935       51.89929
N         72.43278       66.51361       53.76970
C         73.50451       65.61644       53.35390
C         73.55138       65.39822       51.85796
O         73.50108       64.24963       51.44064
H         72.68931       67.29764       54.38858
H         73.36455       64.63124       53.85109
H         74.47478       66.03373       53.69922
N         73.58631       66.44726       50.98930
C         73.51431       66.27560       49.54229
C         72.10165       66.62388       49.09773
O         71.70608       67.76878       49.26661
C         74.54465       67.16390       48.82284
C         75.95753       66.82432       49.20804
O         76.36727       66.95979       50.48397
O         76.74794       66.44247       48.36008
H         73.56510       67.40218       51.37095
H         73.75179       65.23109       49.26845
H         74.35829       68.23402       49.06040
H         74.42253       67.02725       47.72494
N         71.23611       65.70432       48.57526
C         71.54689       64.30071       48.36379
C         72.26052       64.08538       47.04398
O         72.35537       65.03202       46.27498
H         70.27651       66.00986       48.35774
H         70.58976       63.74363       48.28192
H         72.05907       63.88790       49.25060
N         72.73106       62.86853       46.63411
C         72.87803       61.66306       47.44709
C         71.60106       61.27289       48.16731
O         71.61069       61.16080       49.38686
C         74.08328       61.81466       48.40817
C         75.38963       62.09297       47.64431
C         76.56489       62.20562       48.57941
N         76.61735       63.18505       49.51219
O         77.48808       61.41073       48.48484
H         73.08796       62.80258       45.66740
H         73.13533       60.82007       46.76639
H         74.20909       60.86748       48.97873
H         73.89708       62.63095       49.13205
H         75.30955       63.03993       47.06873
H         75.56812       61.26155       46.92649
H         75.85587       63.87233       49.60024
H         77.42719       63.26212       50.14488
N         70.45486       61.04706       47.46741
C         69.19822       60.67692       48.11042
C         68.16674       61.76941       47.87402
O         67.82651       62.05232       46.73439
C         68.72465       59.26034       47.66522
C         69.73158       58.19234       48.12153
C         68.49614       59.11610       46.15360
H         70.47397       61.15614       46.44215
H         69.33623       60.60308       49.21111
H         67.76003       59.04866       48.17904
H         69.86945       58.23582       49.22273
H         69.35997       57.17720       47.86402
H         70.71785       58.34127       47.63168
H         68.12474       58.09538       45.91942
H         67.73019       59.82603       45.81067
H         69.43146       59.28342       45.58051
N         67.64411       62.45576       48.93322
C         66.65101       63.51984       48.78981
C         65.28960       63.00243       48.32968
O         64.41126       63.81450       48.08702
C         66.41770       64.21177       50.15607
C         67.68083       64.77962       50.73917
N         68.34514       65.77179       50.10962
O         68.10255       64.34502       51.79929
H         67.98745       62.22526       49.87884
H         67.03641       64.26347       48.05750
H         65.99862       63.46237       50.86677
H         65.68041       65.03758       50.05583
H         67.99500       66.16155       49.22308
H         69.20967       66.15497       50.51466
N         65.01033       61.66656       48.31397
C         63.65150       61.14794       48.14999
C         63.55484       59.70887       48.64725
O         64.56087       59.11088       48.99536
C         63.09978       61.30600       46.71615
C         63.86764       60.52310       45.68276
C         63.37606       59.29165       45.21697
C         65.06549       61.02754       45.15549
C         64.08200       58.56943       44.25089
C         65.75952       60.31282       44.17469
C         65.27445       59.07654       43.72532
O         65.94272       58.37054       42.79122
H         65.75635       61.01701       48.58044
H         62.99598       61.72594       48.83909
H         63.04696       62.37130       46.40633
H         62.04567       60.95604       46.72308
H         62.45236       58.88451       45.60964
H         65.45154       61.98128       45.49051
H         63.69942       57.61612       43.90872
H         66.67801       60.71867       43.76932
H         66.77290       58.68472       42.40538
N         62.33141       59.11909       48.78139
C         62.16089       57.82764       49.42819
C         61.35456       58.07231       50.68528
O         60.18525       58.41811       50.59167
C         61.51213       56.82847       48.45692
C         61.40698       55.42032       49.05802
C         60.84609       54.45199       48.05671
O         61.43305       54.24360       47.00624
O         59.69968       53.79667       48.31916
H         61.48682       59.63412       48.49511
H         63.14890       57.40868       49.71579
H         62.15370       56.77750       47.54873
H         60.50551       57.18995       48.15101
H         60.75301       55.44506       49.95600
H         62.41529       55.06569       49.36408
N         61.96275       58.01138       51.90637
C         61.27833       58.36701       53.14792
C         60.86399       59.83955       53.18027
O         60.15178       60.21343       54.10307
C         62.18638       58.11234       54.37286
C         62.59498       56.64126       54.54040
C         63.52129       56.49456       55.71335
O         63.14983       56.79723       56.83637
O         64.77782       56.04836       55.52396
H         62.95456       57.73533       51.94324
H         60.36645       57.73516       53.23512
H         61.65001       58.42496       55.29691
H         63.10024       58.74025       54.27351
H         63.12297       56.28097       53.63392
H         61.69369       56.01007       54.69493
N         61.28326       60.74392       52.24651
C         60.89521       62.13671       52.30089
H         59.79075       62.22665       52.22589
H         61.24248       62.59095       53.25347
H         61.35570       62.69173       51.45558
H         61.91139       60.46260       51.48180
Ca        66.23301       55.96644       57.24995
O         67.91638       58.68935       58.02803
H         68.76754       59.13102       58.27454
H         67.33727       59.42665       57.70917
O         66.65241       52.94923       56.52262
H         67.41478       53.18365       57.10964
H         66.01933       52.47273       57.11640
O         64.97264       58.42625       59.00371
H         65.13635       58.41143       59.98012
H         64.05315       58.78103       58.91031
O         68.43175       55.64958       54.84347
H         68.44572       56.36627       54.16039
H         67.65225       55.08979       54.59942
O         65.15860       55.06320       60.04522
H         65.84740       54.41997       59.74111
H         65.67231       55.78655       60.48491
O         68.93554       55.78024       59.01844
H         68.50146       54.95350       59.34778
H         69.39402       55.50472       58.18509
O         66.03844       58.88537       55.06863
H         66.74315       58.25894       54.76728
H         65.60209       59.18443       54.23210

Ca 1.0



