%chk=apoCaM-CA-Ng.loop4.water5.frame502.chk
%nprocshared=20
%mem=10GB
%nosave
#b3lyp/svp scf=(tight,noincore,xqc) Test 
#IOP(5/87=12) Density=Current Pop=(MK,readradii) iop(6/33=2) iop(6/42=6)

apoCaM-CA-Ng.loop4.water5.frame502 

   -3  1 
C         65.75131       27.89930       59.04928
C         65.49215       27.27477       60.38835
O         66.31582       27.42794       61.27795
H         66.69729       27.49979       58.62870
H         64.92743       27.68535       58.33573
H         65.83733       29.00024       59.16537
N         64.34723       26.56798       60.60940
C         63.99182       25.95036       61.88208
C         63.90705       26.99357       62.98009
O         64.48096       26.81307       64.04603
C         64.94676       24.78428       62.22207
C         64.83533       23.68459       61.20294
O         63.78793       23.06793       61.08898
O         65.87404       23.36824       60.40713
H         63.66460       26.48012       59.84093
H         62.96509       25.53058       61.78394
H         64.69381       24.34979       63.21383
H         65.98945       25.15665       62.27736
N         63.17834       28.12493       62.76859
C         62.92467       29.13266       63.79560
C         61.41912       29.33368       63.93018
O         60.69834       28.95686       63.01508
C         63.66889       30.46619       63.47512
C         63.27761       31.03374       62.08191
C         65.18791       30.24271       63.59350
C         63.91253       32.38909       61.76313
H         62.76221       28.26371       61.83485
H         63.29184       28.74633       64.76903
H         63.38965       31.21501       64.24725
H         62.17597       31.17089       62.04488
H         63.56953       30.32479       61.27787
H         65.54410       29.52215       62.82889
H         65.74726       31.19242       63.47942
H         65.43626       29.84702       64.60174
H         65.01697       32.31476       61.69834
H         63.54781       32.74144       60.77488
H         63.63400       33.13844       62.53321
N         60.81666       29.86341       65.03304
C         61.46930       30.27254       66.27352
C         61.06063       29.32266       67.39238
O         61.93299       28.77329       68.05102
C         61.16678       31.75099       66.61573
C         59.71568       32.08209       66.84989
O         59.31771       32.53125       68.05557
O         58.89946       31.98418       65.94804
H         59.78870       29.91671       64.99889
H         62.57290       30.22104       66.18799
H         61.54814       32.40168       65.79914
H         61.73405       32.00475       67.53869
N         59.74740       29.03295       67.61992
C         59.28277       28.10455       68.63359
C         59.43376       28.68363       70.01394
O         58.94555       29.78115       70.24581
H         59.02583       29.44985       67.01696
H         59.78784       27.11905       68.52100
H         58.19495       27.93978       68.48083
N         60.04683       27.97929       71.00577
C         60.14207       28.47941       72.37547
C         61.10483       29.65745       72.53626
O         61.25242       30.11645       73.66112
C         60.46008       27.33329       73.37522
C         61.74713       26.57505       73.18126
O         62.07005       25.60470       74.05740
O         62.48575       26.79509       72.23764
H         60.37865       27.02623       70.79272
H         59.13398       28.83605       72.68535
H         59.63437       26.59050       73.32893
H         60.46197       27.75831       74.40293
N         61.77542       30.22817       71.48782
C         62.70544       31.33315       71.67488
C         64.00067       30.89490       72.32959
O         64.82864       31.74616       72.61837
H         61.62945       29.89760       70.52616
H         62.20913       32.13216       72.26671
H         62.97801       31.76194       70.68604
N         64.27249       29.57300       72.52551
C         65.51064       29.02901       73.05715
C         66.67376       29.44615       72.17464
O         67.71256       29.85869       72.67262
C         65.69204       29.38758       74.54810
C         64.46554       28.97029       75.38103
C         64.64493       29.29243       76.84105
N         64.81685       30.57017       77.25476
O         64.61952       28.38922       77.66351
H         63.58950       28.87571       72.22153
H         65.43390       27.91939       72.98616
H         65.85073       30.48136       74.64828
H         66.59354       28.86528       74.93804
H         64.29599       27.87748       75.25919
H         63.55993       29.50317       75.02094
H         64.82969       31.34890       76.58041
H         64.93260       30.78373       78.25644
N         66.52714       29.40325       70.81923
C         67.57408       29.79662       69.88449
C         68.59783       28.67929       69.81917
O         68.21961       27.52529       69.97711
C         66.95664       30.15576       68.50033
C         65.97221       31.33366       68.64655
C         68.02955       30.54779       67.47648
H         65.61779       29.10380       70.43434
H         68.06354       30.72588       70.25691
H         66.40251       29.27863       68.09947
H         66.49394       32.23307       69.04155
H         65.52473       31.58910       67.66258
H         65.13921       31.08435       69.33472
H         67.55976       30.83621       66.51217
H         68.64005       31.40087       67.84605
H         68.68232       29.68260       67.27014
N         69.92438       28.95508       69.65855
C         70.96210       27.93487       69.77192
C         71.75702       27.73683       68.47682
O         72.63502       26.88660       68.46732
C         71.87504       28.34848       70.94704
C         72.76274       27.23799       71.44042
N         72.22014       26.12846       71.99636
O         73.97686       27.35394       71.37391
H         70.21494       29.93534       69.51601
H         70.49513       26.95652       70.01437
H         71.24661       28.65002       71.81410
H         72.47382       29.23582       70.64139
H         71.19764       26.03078       72.08705
H         72.82067       25.37451       72.35983
N         71.51731       28.48080       67.35267
C         72.27264       28.33364       66.10239
C         71.92478       29.45404       65.11090
O         70.89166       30.09253       65.24774
C         72.00631       26.93983       65.46193
C         72.81857       26.68139       64.21302
C         74.22288       26.63095       64.27336
C         72.18164       26.49318       62.97479
C         74.97436       26.41878       63.11257
C         72.93725       26.27261       61.81993
C         74.33500       26.24288       61.88216
O         75.07030       26.04729       60.76870
H         70.80587       29.21320       67.40872
H         73.34685       28.45210       66.36326
H         70.91919       26.87267       65.23297
H         72.23952       26.12404       66.17519
H         74.73536       26.76852       65.21643
H         71.10232       26.52220       62.89887
H         76.05500       26.39450       63.16885
H         72.43946       26.12518       60.87439
H         74.66397       25.93577       59.89684
N         72.76371       29.73158       64.06953
C         72.53856       30.78607       63.08159
C         73.40881       30.52851       61.84777
O         74.61440       30.39901       62.01241
C         72.91710       32.19379       63.61206
C         71.99266       32.76118       64.69667
C         72.36455       34.17881       65.03064
O         72.33491       35.04402       64.16912
O         72.71655       34.50601       66.28840
H         73.60762       29.15444       63.96598
H         71.47164       30.79375       62.79959
H         72.85039       32.89138       62.74618
H         73.96958       32.19461       63.97432
H         72.06731       32.15733       65.62144
H         70.94313       32.75373       64.32870
N         72.92204       30.50087       60.56805
C         71.52293       30.73031       60.20706
C         71.36849       31.24059       58.77817
O         72.35105       31.36605       58.05939
C         70.69336       29.44236       60.43053
C         71.06013       28.32201       59.43913
C         70.22603       27.08711       59.64108
O         69.29801       27.02773       60.61576
O         70.39182       26.12281       58.91177
H         73.61741       30.38582       59.81440
H         71.12688       31.55967       60.83001
H         69.61493       29.67702       60.30706
H         70.83533       29.07436       61.46879
H         72.13405       28.06228       59.54805
H         70.88841       28.67256       58.39922
N         70.13058       31.56364       58.30750
C         69.88493       32.04862       56.96522
H         69.40488       33.04763       57.01958
H         70.81645       32.13808       56.36811
H         69.20061       31.34738       56.44358
H         69.31206       31.46230       58.92543
Ca        67.78182       24.57290       60.34266
O         68.63086       21.80543       60.99260
H         68.41085       20.92731       60.59256
H         69.13781       21.58800       61.81457
O         70.42083       22.95481       58.48522
H         70.87094       23.13038       57.62116
H         70.35438       21.96813       58.53567
O         68.76126       25.06518       63.11714
H         68.72353       24.11418       63.39012
H         68.32985       25.55716       63.85966
O         67.29216       22.69570       57.79684
H         66.70368       22.00540       58.19365
H         67.93297       22.18428       57.24233
O         71.11497       23.65298       61.39252
H         71.23944       23.73403       62.37119
H         71.56551       22.80382       61.15621

Ca 1.0



