%chk=apoCaM-CA-Ng.loop1.water4.frame288.chk
%nprocshared=20
%mem=10GB
%nosave
#b3lyp/svp scf=(tight,noincore,xqc) Test 
#IOP(5/87=12) Density=Current Pop=(MK,readradii) iop(6/33=2) iop(6/42=6)

apoCaM-CA-Ng.loop1.water4.frame288 

   0  1 
C         55.78046       54.94609       52.95741
C         55.94020       56.40236       52.63701
O         56.85631       56.76952       51.91518
H         54.78535       54.59463       52.61086
H         56.56908       54.34036       52.46459
H         55.84993       54.80209       54.05667
N         55.05645       57.29784       53.15084
C         55.11494       58.73323       52.89878
C         56.23060       59.42905       53.68866
O         56.20096       60.64542       53.73465
C         53.75355       59.39377       53.24636
C         52.61578       58.87529       52.40039
O         52.22888       57.58811       52.47904
O         52.02065       59.63189       51.64864
H         54.28026       56.92771       53.72102
H         55.25503       58.92430       51.81613
H         53.83101       60.48422       53.04476
H         53.51327       59.25795       54.32229
N         57.21549       58.76789       54.37087
C         58.15029       59.45881       55.26203
C         59.61386       59.24669       54.90858
O         59.97180       58.11178       54.62730
C         57.89183       58.97158       56.69411
C         56.49461       59.41837       57.13793
C         56.23816       59.09993       58.60912
C         54.87110       59.62110       59.08324
N         54.77762       61.08328       59.01676
H         57.26859       57.74214       54.34322
H         57.95684       60.53445       55.25778
H         58.63749       59.43373       57.37418
H         58.00242       57.86664       56.76472
H         55.71364       58.93564       56.50990
H         56.44284       60.51485       56.98934
H         57.03496       59.55682       59.23589
H         56.27268       57.99714       58.74556
H         54.73400       59.30417       60.13945
H         54.05841       59.16419       58.47587
H         54.79157       61.41619       58.02879
H         53.87097       61.38739       59.43742
H         55.56370       61.52360       59.54793
N         60.57462       60.23265       55.00342
C         60.39447       61.64654       55.37911
C         59.75413       61.80534       56.75258
O         58.58692       62.15288       56.83404
C         59.73084       62.47279       54.24939
C         60.60573       62.49218       53.02409
O         61.81242       61.88895       53.05423
O         60.20221       63.00070       51.99059
H         61.54818       59.94439       54.81618
H         61.39142       62.12542       55.46308
H         59.58999       63.52401       54.57020
H         58.74240       62.05893       53.97809
N         60.45180       61.61518       57.90809
C         61.88611       61.36853       57.93565
C         62.45916       61.30010       59.34225
O         61.70257       61.31661       60.30256
H         59.93551       61.73114       58.79295
H         62.37003       62.23463       57.43908
H         62.13166       60.43351       57.38867
N         63.80495       61.28107       59.57763
C         64.83184       61.34298       58.53885
C         65.47048       62.71760       58.53424
O         65.22526       63.50262       59.44213
C         65.84424       60.18344       58.65156
C         66.57649       60.11231       59.96792
O         65.91209       59.84861       61.10971
O         67.79039       60.23124       59.99895
H         64.10728       61.31732       60.56167
H         64.36604       61.24583       57.53895
H         66.58351       60.28382       57.82680
H         65.30842       59.22127       58.50513
N         66.18932       63.13299       57.44953
C         66.59770       64.51895       57.27848
C         65.40562       65.46346       57.13870
O         65.62796       66.66501       57.11453
H         66.39578       62.46820       56.68895
H         67.22178       64.62196       56.36453
H         67.21511       64.81891       58.15331
N         64.11900       65.00019       57.05493
C         62.93431       65.85143       57.03934
C         62.12172       65.58279       58.29896
O         62.42203       64.64562       59.02651
C         62.09246       65.54456       55.77099
C         62.84961       65.88421       54.48875
O         60.89457       66.27484       55.77974
H         63.93989       63.98919       57.02927
H         63.22439       66.92461       57.05632
H         61.86506       64.45199       55.78213
H         60.22899       65.74947       55.26275
H         62.22825       65.60862       53.60918
H         63.05644       66.97492       54.44949
H         63.80620       65.32692       54.43380
N         61.08737       66.40447       58.63352
C         60.24703       66.19952       59.81027
C         58.77526       66.01381       59.43685
O         58.00000       65.71275       60.33495
C         60.44261       67.35904       60.83603
C         60.10480       68.74353       60.22247
C         61.87913       67.32945       61.39327
C         60.06141       69.87851       61.24600
H         60.90571       67.22472       58.03889
H         60.53419       65.25438       60.32309
H         59.75257       67.16914       61.68845
H         59.10122       68.69663       59.76180
H         60.83893       69.00802       59.43152
H         62.09316       66.33714       61.84446
H         62.62189       67.52125       60.58981
H         62.01919       68.08332       62.19341
H         59.77789       70.82165       60.73210
H         59.30086       69.66011       62.02517
H         61.04733       70.03984       61.72480
N         58.30750       66.17629       58.15999
C         56.90843       65.98249       57.77999
C         56.78589       64.98575       56.63315
O         57.79111       64.56801       56.07989
C         56.25769       67.33892       57.39403
C         56.90494       68.01633       56.17174
O         56.25103       68.20991       58.49680
H         58.95154       66.46783       57.41681
H         56.33414       65.57047       58.63906
H         55.19472       67.15625       57.12988
H         57.17488       68.54279       58.62571
H         57.96982       68.26396       56.36197
H         56.84607       67.35751       55.28227
H         56.36599       68.95845       55.93959
N         55.55454       64.57283       56.22032
C         55.32214       63.63413       55.11566
C         55.82286       64.17912       53.76598
O         56.31902       65.29508       53.71576
C         53.80916       63.25593       55.05404
C         52.87854       64.44318       54.75859
O         53.43339       62.67101       56.27490
H         54.74587       64.92355       56.75315
H         55.88254       62.69913       55.33384
H         53.67270       62.50873       54.24394
H         52.67177       62.06053       56.08983
H         53.13820       64.91719       53.79045
H         51.82930       64.08220       54.70036
H         52.91965       65.21044       55.55838
N         55.67976       63.44494       52.61721
C         56.02815       63.93262       51.28184
C         56.83237       62.92549       50.43657
O         57.00249       63.17598       49.25131
C         54.73221       64.38720       50.57293
C         53.67143       63.29559       50.35419
C         52.42534       63.91760       49.69884
C         51.27192       62.92500       49.48740
N         51.61048       61.87135       48.53041
H         55.19969       62.53957       52.66787
H         56.64380       64.85622       51.35036
H         54.99806       64.83618       49.59059
H         54.28018       65.19276       51.19460
H         53.37047       62.85500       51.32845
H         54.09691       62.49835       49.71045
H         52.69828       64.37581       48.72297
H         52.04755       64.72527       50.36467
H         50.40086       63.49524       49.09332
H         50.97295       62.47485       50.45980
H         52.37275       61.26292       48.90334
H         50.76494       61.27757       48.37024
H         51.90091       62.29397       47.61868
N         57.40509       61.80550       50.96993
C         58.18315       60.83413       50.19083
C         57.29606       60.06895       49.22998
O         56.35555       59.42362       49.66925
C         58.89426       59.83499       51.13888
C         59.72328       58.70717       50.48047
C         60.79643       59.17157       49.52668
O         60.50197       59.63965       48.44147
O         62.09184       59.10500       49.87683
H         57.33729       61.66669       51.98141
H         58.98111       61.37733       49.63972
H         58.13995       59.34187       51.78408
H         59.56862       60.40756       51.80206
H         59.06442       57.99057       49.94560
H         60.20464       58.15100       51.31550
N         57.57606       60.04528       47.89931
C         56.81830       59.23354       46.97304
H         55.75769       59.55822       46.95822
H         57.24436       59.32733       45.95181
H         56.87610       58.16498       47.27712
H         58.37222       60.58670       47.53279
Ca        62.54502       60.77233       51.28122
O         64.50733       63.49477       52.33507
H         64.19231       64.41220       52.13720
H         65.48533       63.59029       52.45594
O         62.32074       63.22922       49.56054
H         62.28622       63.78974       50.37581
H         62.16876       63.86323       48.81603
O         64.18359       60.83720       48.19261
H         64.46230       59.96221       48.56336
H         63.19718       60.78040       48.13184
O         66.31018       61.66358       50.44776
H         67.24715       61.71912       50.76298
H         66.27211       62.27967       49.67347

Ca 1.0



