%chk=apoCaM-CA-Ng.loop1.water4.frame260.chk
%nprocshared=20
%mem=10GB
%nosave
#b3lyp/svp scf=(tight,noincore,xqc) Test 
#IOP(5/87=12) Density=Current Pop=(MK,readradii) iop(6/33=2) iop(6/42=6)

apoCaM-CA-Ng.loop1.water4.frame260 

   0  1 
C         33.86965       17.72377      104.58897
C         32.48106       17.44025      104.09791
O         31.52146       17.88153      104.71238
H         34.44132       18.26541      103.80615
H         33.84692       18.33997      105.51200
H         34.38295       16.76394      104.81158
N         32.30872       16.69875      102.97114
C         31.00608       16.36121      102.40234
C         30.16687       15.39576      103.25397
O         29.13951       14.98222      102.75319
C         31.14606       15.83281      100.94388
C         31.93971       14.57011      100.77291
O         31.39956       13.55436      100.36403
O         33.26891       14.58016      100.96673
H         33.16168       16.41298      102.47201
H         30.41602       17.29833      102.28922
H         31.60973       16.61554      100.30520
H         30.12948       15.65403      100.53884
N         30.47582       15.00404      104.52756
C         29.63354       14.07843      105.29135
C         29.00299       14.77428      106.50195
O         29.75116       15.42057      107.22198
C         30.45558       12.86993      105.78949
C         31.02047       11.94804      104.69261
C         32.30434       12.45724      104.01629
C         32.84559       11.39194      103.04607
N         34.16406       11.75358      102.52729
H         31.31979       15.36188      104.99110
H         28.83426       13.67135      104.65858
H         29.75131       12.24316      106.37811
H         31.26823       13.18311      106.48109
H         30.23054       11.71254      103.94640
H         31.29936       10.99914      105.20153
H         33.06317       12.64073      104.80780
H         32.13477       13.40132      103.46340
H         32.12909       11.26224      102.20398
H         32.94095       10.41855      103.57584
H         34.85195       11.82277      103.31174
H         34.48459       11.01593      101.85923
H         34.12639       12.66250      102.02520
N         27.67998       14.66143      106.88168
C         26.61688       13.87765      106.24234
C         26.99399       12.40729      106.10747
O         27.23417       11.94942      104.99948
C         26.10287       14.51583      104.93342
C         25.26567       15.74994      105.16196
O         25.06954       16.24598      106.39805
O         24.68873       16.26465      104.21944
H         27.40830       15.14079      107.75464
H         25.71242       13.88261      106.88713
H         25.40616       13.80215      104.46318
H         26.92313       14.71878      104.22266
N         27.01106       11.55655      107.17303
C         26.56121       11.92725      108.51157
C         26.55165       10.74808      109.47542
O         27.02922        9.68014      109.11884
H         27.28269       10.58111      106.97845
H         25.50876       12.26919      108.42247
H         27.18726       12.74733      108.92256
N         25.97636       10.81084      110.71300
C         25.31426       11.97886      111.28570
C         23.82306       11.71287      111.36186
O         23.41272       10.73302      111.96931
C         25.89876       12.35153      112.66622
C         25.72256       11.30361      113.73697
O         26.26447       10.21456      113.64215
O         24.98238       11.57991      114.82770
H         25.95667        9.93656      111.25821
H         25.47589       12.86871      110.64354
H         25.38825       13.28041      113.00462
H         26.98057       12.58015      112.56025
N         22.95573       12.54145      110.71868
C         21.52560       12.30730      110.62724
C         21.09958       12.10227      109.18703
O         19.90768       11.96047      108.95459
H         23.32645       13.37203      110.23141
H         20.99684       13.19030      111.04542
H         21.21354       11.41312      111.20927
N         22.01218       12.06349      108.16828
C         21.66563       11.87770      106.76945
C         22.32426       10.60770      106.28425
O         23.54516       10.51642      106.32010
C         22.15728       13.08424      105.94006
C         21.50069       14.38387      106.40638
O         21.85336       12.87542      104.58540
H         23.01632       12.16031      108.37054
H         20.56358       11.79354      106.64156
H         23.26287       13.17170      106.07103
H         22.44752       13.47576      104.06320
H         20.39831       14.32698      106.28217
H         21.73654       14.57883      107.47338
H         21.88816       15.23091      105.80228
N         21.56924        9.56945      105.82954
C         22.16873        8.31665      105.37865
C         23.04595        8.50072      104.13849
O         23.77374        7.57075      103.81842
C         21.10128        7.19152      105.18663
C         20.06112        7.53981      104.08510
C         20.43185        6.87700      106.54191
C         19.03861        6.42790      103.83249
H         20.54538        9.66959      105.85407
H         22.84875        7.97372      106.19186
H         21.63851        6.26782      104.87489
H         20.59931        7.72334      103.13094
H         19.49750        8.45952      104.34321
H         21.20484        6.62197      107.29813
H         19.84212        7.73868      106.91749
H         19.76273        5.99670      106.46836
H         18.40145        6.25484      104.72420
H         18.36421        6.72768      103.00284
H         19.55027        5.48309      103.55401
N         23.04022        9.65221      103.39548
C         23.93105        9.87851      102.25515
C         24.71386       11.17986      102.41239
O         24.46853       11.92139      103.34952
C         23.12694        9.86687      100.93045
C         22.10124       11.00199      100.83447
O         22.45403        8.64221      100.79404
H         22.37098       10.39757      103.63031
H         24.67777        9.05660      102.19253
H         23.82475        9.99516      100.07090
H         23.14297        7.95587      100.59281
H         22.59997       11.99022      100.90641
H         21.58268       10.95057       99.85403
H         21.33772       10.92240      101.63510
N         25.69226       11.50390      101.51795
C         26.49988       12.72941      101.57670
C         25.68189       13.99624      101.27133
O         24.49191       13.90839      101.00657
C         27.72471       12.61076      100.61367
C         27.34891       12.54419       99.12932
O         28.47979       11.47207      100.94513
H         25.90510       10.80670      100.79050
H         26.92603       12.82259      102.59660
H         28.37491       13.50832      100.70835
H         29.19463       11.76255      101.57156
H         26.73656       11.64997       98.89928
H         26.78938       13.45344       98.82636
H         28.27619       12.49290       98.51947
N         26.31088       15.21071      101.23161
C         25.70553       16.47551      100.81083
C         25.92285       17.63417      101.79836
O         25.32860       18.68286      101.58931
C         26.30039       16.85958       99.43281
C         27.83937       17.08674       99.47044
C         28.28073       18.52432       99.17090
C         28.07205       18.96566       97.71318
N         28.89714       18.19333       96.78020
H         27.30907       15.21405      101.41556
H         24.60945       16.33161      100.69036
H         25.77289       17.74733       99.02514
H         26.08712       16.02161       98.73254
H         28.35417       16.36060       98.80713
H         28.22408       16.88601      100.48621
H         29.36524       18.61500       99.40245
H         27.73367       19.21019       99.85307
H         28.36968       20.03495       97.64279
H         27.00243       18.89188       97.42467
H         28.78941       18.59329       95.82061
H         29.90530       18.25259       97.05447
H         28.59531       17.19414       96.75152
N         26.77217       17.54154      102.86575
C         26.99555       18.61238      103.83753
C         27.55670       19.85900      103.17619
O         28.60347       19.78037      102.54722
C         27.99014       18.12980      104.92510
C         28.22929       19.14707      106.05592
C         26.98876       19.36931      106.86977
O         26.48872       20.47959      106.94857
O         26.43546       18.33309      107.52750
H         27.28031       16.66501      103.01597
H         26.02709       18.84319      104.33190
H         28.96182       17.90669      104.43884
H         27.62521       17.18489      105.37712
H         28.60048       20.10693      105.63622
H         29.01266       18.75039      106.73632
N         26.92927       21.05943      103.33264
C         27.44621       22.30811      102.80790
H         28.39774       22.17499      102.25156
H         26.69790       22.76470      102.12828
H         27.63595       23.00611      103.65165
H         26.05634       21.10506      103.87954
Ca        24.54225       18.52754      108.74127
O         21.65119       17.25271      107.89605
H         20.93503       17.03100      108.54257
H         21.18961       17.28781      107.02126
O         21.87064       19.33273      109.99000
H         22.14027       19.32907      110.94239
H         21.04693       19.88096      109.96293
O         23.83701       21.36366      108.13737
H         24.02147       22.00800      107.40892
H         22.86111       21.42959      108.28882
O         23.00211       19.07469      105.69482
H         23.60650       18.59235      105.07762
H         22.09826       18.92910      105.31762

Ca 1.0



