%chk=apoCaM-CA-Ng.loop2.water3.frame604.chk
%nprocshared=20
%mem=10GB
%nosave
#b3lyp/svp scf=(tight,noincore,xqc) Test 
#IOP(5/87=12) Density=Current Pop=(MK,readradii) iop(6/33=2) iop(6/42=6)

apoCaM-CA-Ng.loop2.water3.frame604 

   -2  1 
C         61.93138       13.69883      -29.36334
C         61.23897       14.19476      -30.59877
O         61.39233       13.59803      -31.65505
H         62.61285       14.48712      -28.97844
H         61.17944       13.45665      -28.58335
H         62.52909       12.78837      -29.58182
N         60.45918       15.30835      -30.53504
C         59.78125       15.87421      -31.69493
C         58.76294       14.90027      -32.26503
O         57.84932       14.50190      -31.55550
C         59.08115       17.19457      -31.30891
C         58.40416       17.83795      -32.48938
O         59.05469       18.17206      -33.46702
O         57.07365       18.04598      -32.47217
H         60.37115       15.78561      -29.62362
H         60.54970       16.11911      -32.46237
H         59.83364       17.90677      -30.90548
H         58.32812       16.99918      -30.51398
N         58.83796       14.52471      -33.57384
C         57.83571       13.68054      -34.22207
C         57.84179       12.26204      -33.64921
O         58.80879       11.91786      -32.98353
C         58.12588       13.65273      -35.73238
H         59.60633       14.91164      -34.14413
H         56.85431       14.16338      -34.06004
H         58.12060       14.69093      -36.12795
H         59.12537       13.20623      -35.92095
H         57.38647       13.08445      -36.31676
N         56.83979       11.34669      -33.85433
C         55.57274       11.60061      -34.54706
C         54.71459       12.62460      -33.81692
O         55.05714       13.03872      -32.71651
C         54.79237       10.28138      -34.78578
C         54.38978        9.53351      -33.54280
O         54.70746        9.99302      -32.32119
O         53.77392        8.48483      -33.64483
H         56.99689       10.39985      -33.47425
H         55.78602       11.99377      -35.55234
H         55.42714        9.60724      -35.40019
H         53.87273       10.49653      -35.37010
N         53.57614       13.09670      -34.40160
C         52.74258       14.12509      -33.80322
C         53.46202       15.45519      -33.70082
O         54.60622       15.55391      -34.12032
H         53.28650       12.72272      -35.31695
H         52.42157       13.79753      -32.79394
H         51.84082       14.26995      -34.43631
N         52.87862       16.55204      -33.14461
C         51.51903       16.60461      -32.62328
C         51.53313       16.81043      -31.10939
O         50.47529       17.03828      -30.54108
C         50.77371       17.72972      -33.38287
C         49.28731       17.74955      -33.11489
N         48.68059       18.85537      -32.62428
O         48.61904       16.75795      -33.36821
H         53.44076       17.41718      -33.08313
H         50.97122       15.66097      -32.81511
H         50.89336       17.55615      -34.47515
H         51.23595       18.71362      -33.14575
H         49.21884       19.70832      -32.41553
H         47.66245       18.86102      -32.46081
N         52.68973       16.73019      -30.37981
C         52.74235       17.00828      -28.95432
C         51.97018       16.04558      -28.06752
O         51.76405       16.40487      -26.91712
H         53.58541       16.52379      -30.84406
H         52.34438       18.03488      -28.80315
H         53.79881       17.01214      -28.60597
N         51.55501       14.80798      -28.47995
C         50.78441       13.90383      -27.61755
C         51.62300       12.69937      -27.20125
O         52.17774       12.01125      -28.04565
C         49.45520       13.48875      -28.28057
C         48.55830       14.70341      -28.53197
O         49.67952       12.82259      -29.49525
H         51.80516       14.48293      -29.42591
H         50.49034       14.42915      -26.68296
H         48.89618       12.82932      -27.57320
H         49.73036       11.85251      -29.29043
H         48.36010       15.24168      -27.57961
H         49.03639       15.40432      -29.24354
H         47.58730       14.37666      -28.95859
N         51.77720       12.43000      -25.87165
C         52.67884       11.42125      -25.31668
C         52.25352        9.99652      -25.67419
O         51.16981        9.57224      -25.29963
C         52.78636       11.58799      -23.75875
C         53.70963       10.50352      -23.13412
C         53.31691       12.99903      -23.40523
C         53.79056       10.54846      -21.60653
H         51.26014       13.02665      -25.21118
H         53.69467       11.61547      -25.72200
H         51.76845       11.46875      -23.32388
H         54.73592       10.59430      -23.55088
H         53.31147        9.49857      -23.38331
H         53.32801       13.16280      -22.31054
H         54.34433       13.13712      -23.80434
H         52.68101       13.80882      -23.81069
H         54.25806       11.48551      -21.24534
H         52.77698       10.44227      -21.16508
H         54.42248        9.70851      -21.24892
N         53.13414        9.18121      -26.32303
C         52.95779        7.75797      -26.57795
C         54.00789        6.92095      -25.83693
O         53.98807        5.71119      -26.02234
C         53.06765        7.51255      -28.09272
C         51.93283        8.16770      -28.82685
O         50.79263        7.75818      -28.67783
O         52.15896        9.21597      -29.63795
H         54.01712        9.58086      -26.64403
H         51.96436        7.40278      -26.22531
H         53.04251        6.42687      -28.33186
H         54.04546        7.90620      -28.44473
N         54.90370        7.45550      -24.94237
C         55.81943        6.63118      -24.15506
C         57.25682        7.17772      -24.21914
O         57.77999        7.57725      -23.18611
C         55.30022        6.57067      -22.69334
C         55.86001        5.37214      -21.95711
C         56.81845        5.50435      -20.93837
C         55.39215        4.08727      -22.29332
C         57.30714        4.36663      -20.28117
C         55.86959        2.95827      -21.62459
C         56.83029        3.09655      -20.62174
H         54.88319        8.46039      -24.73456
H         55.80988        5.58870      -24.53585
H         54.19425        6.45423      -22.67605
H         55.51707        7.53137      -22.17641
H         57.19718        6.47956      -20.66164
H         54.64245        3.96262      -23.06562
H         58.05468        4.46678      -19.50519
H         55.49270        1.97685      -21.88433
H         57.20235        2.21880      -20.10846
N         57.98754        7.22109      -25.37705
C         59.39411        7.62379      -25.42722
C         59.70414        9.07767      -25.08024
O         60.87715        9.42261      -25.04271
C         59.78965        7.36079      -26.88527
C         58.89052        6.19633      -27.24782
C         57.56672        6.63921      -26.63242
H         59.94810        6.94395      -24.74076
H         59.45804        8.21807      -27.51774
H         60.87761        7.20359      -27.04709
H         58.83841        5.96327      -28.33197
H         59.25622        5.29751      -26.69955
H         57.09282        7.43509      -27.24893
H         56.89058        5.76630      -26.53055
N         58.71971        9.99909      -24.88307
C         58.99372       11.40741      -24.61876
C         59.45709       11.55268      -23.19116
O         60.56176       12.02640      -22.96568
C         57.77679       12.35066      -24.85688
C         57.34415       12.47958      -26.33294
C         56.49052       11.36111      -26.84045
O         56.15241       11.34453      -28.00867
O         56.00259       10.43455      -26.00946
H         57.75738        9.68123      -24.94014
H         59.78738       11.76333      -25.31574
H         58.12904       13.36719      -24.57129
H         56.90569       12.11462      -24.20759
H         58.24696       12.59498      -26.97030
H         56.72582       13.39614      -26.44881
N         58.64188       11.15970      -22.17204
C         58.99195       11.27715      -20.77333
H         59.98961       11.74015      -20.62479
H         58.23317       11.90452      -20.26047
H         58.99620       10.26768      -20.31260
H         57.72093       10.75115      -22.39435
Ca        54.17765       10.21925      -29.64683
O         57.18379       11.22017      -30.62846
H         58.06617       10.80421      -30.46011
H         57.29598       12.16051      -30.34043
O         52.15725       11.54611      -31.42894
H         51.73667       12.33349      -31.00232
H         51.70863       11.46582      -32.30737
O         55.00906       13.87722      -29.38171
H         55.89485       13.90403      -28.94031
H         55.09543       14.50423      -30.14274

Ca 1.0



