%chk=apoCaM-CA-Ng.loop1.water6.frame643.chk
%nprocshared=20
%mem=10GB
%nosave
#b3lyp/svp scf=(tight,noincore,xqc) Test 
#IOP(5/87=12) Density=Current Pop=(MK,readradii) iop(6/33=2) iop(6/42=6)

apoCaM-CA-Ng.loop1.water6.frame643 

   0  1 
C         72.66301       54.23882       44.31201
C         71.50045       53.39703       44.74976
O         71.09208       52.52220       44.00341
H         73.54650       53.59345       44.13230
H         72.39851       54.77021       43.37295
H         72.92505       54.99946       45.07799
N         70.91636       53.60317       45.96058
C         69.73973       52.86661       46.41983
C         68.52410       53.11731       45.52114
O         68.42182       54.18902       44.94049
C         69.42301       53.20424       47.89909
C         69.20563       54.67107       48.18346
O         68.81660       55.01713       49.28732
O         69.37068       55.59507       47.21668
H         71.33879       54.31130       46.57916
H         69.96986       51.77981       46.38329
H         70.25301       52.85148       48.54706
H         68.50250       52.64980       48.18760
N         67.55125       52.16135       45.38416
C         66.36267       52.31720       44.54174
C         65.15485       52.38869       45.45402
O         64.87337       51.41996       46.14655
C         66.27397       51.13720       43.53782
C         65.20655       51.30622       42.43348
C         65.23825       50.10309       41.45953
C         64.47115       50.33871       40.14407
N         63.02940       50.46980       40.33920
H         67.64926       51.28350       45.91688
H         66.43849       53.26170       43.96014
H         66.10745       50.18571       44.08864
H         67.25796       51.05829       43.02858
H         65.44615       52.23577       41.87303
H         64.19129       51.41074       42.86993
H         64.87383       49.18404       41.96740
H         66.28637       49.90911       41.16130
H         64.65858       49.47372       39.46756
H         64.86967       51.24773       39.63968
H         62.57977       50.63614       39.40901
H         62.64344       49.58738       40.74573
H         62.81402       51.27766       40.96232
N         64.44474       53.54773       45.56767
C         63.42116       53.75410       46.58933
C         62.32255       54.67914       46.08256
O         62.13548       55.74779       46.64885
C         64.08469       54.24679       47.89808
C         64.88515       55.50889       47.73983
O         64.68096       56.47635       48.45457
O         65.89001       55.52619       46.85275
H         64.75423       54.36514       45.02126
H         62.93318       52.79010       46.85405
H         64.78796       53.45762       48.24412
H         63.31506       54.37731       48.69018
N         61.50431       54.34633       45.04383
C         61.58250       53.10988       44.28406
C         61.73097       53.42611       42.82329
O         60.89322       52.99397       42.04249
H         60.75698       55.00968       44.78506
H         60.64845       52.53119       44.44900
H         62.42188       52.46496       44.59802
N         62.76842       54.19203       42.38048
C         62.94303       54.57680       40.97767
C         64.21778       55.38021       40.74812
O         64.86081       55.78615       41.70710
C         61.74626       55.43391       40.48749
C         61.64024       56.73678       41.24276
O         61.74086       57.79790       40.64809
O         61.44176       56.74096       42.57518
H         63.45108       54.50869       43.08468
H         63.01634       53.64251       40.37875
H         60.78838       54.89018       40.59408
H         61.86934       55.64615       39.40400
N         64.64106       55.65853       39.48244
C         65.79114       56.50306       39.19940
C         66.97101       55.66750       38.79596
O         67.49987       55.83176       37.70663
H         64.13688       55.24558       38.68149
H         66.10330       57.07225       40.10150
H         65.51714       57.24933       38.42284
N         67.44799       54.74790       39.67471
C         68.60966       53.90666       39.42530
C         69.88662       54.70303       39.27722
O         70.04944       55.72670       39.92599
C         68.80390       52.86881       40.55413
C         68.97122       53.48036       41.95310
O         67.70089       52.00688       40.56253
H         66.93291       54.63540       40.55744
H         68.43454       53.33921       38.48436
H         69.73667       52.29197       40.33249
H         68.05623       51.08297       40.49571
H         69.87151       54.12661       42.00965
H         68.09251       54.07594       42.26845
H         69.07434       52.65761       42.68369
N         70.90219       54.17812       38.53577
C         72.23405       54.77105       38.47287
C         72.19632       56.11236       37.74202
O         73.05977       56.94441       37.98180
C         73.26831       53.79327       37.81675
C         73.20486       52.33603       38.37196
C         74.70749       54.32892       37.94638
C         73.31512       52.21111       39.89327
H         70.71771       53.29161       38.04978
H         72.55571       54.94055       39.52560
H         73.03920       53.71547       36.73025
H         74.00831       51.73205       37.89688
H         72.25761       51.84691       38.07014
H         75.41999       53.63273       37.45486
H         74.82205       55.30928       37.44473
H         74.99778       54.44098       39.01181
H         73.25896       51.13732       40.17251
H         74.27506       52.61984       40.26432
H         72.47049       52.73086       40.39237
N         71.21230       56.38444       36.83559
C         71.08275       57.64140       36.10270
C         71.14550       57.36438       34.59978
O         71.28071       56.21475       34.20104
C         69.74825       58.31143       36.54108
C         69.79976       58.69773       38.02295
O         69.48826       59.47786       35.80833
H         70.49551       55.66749       36.64735
H         71.92077       58.33441       36.33866
H         68.92980       57.57489       36.36606
H         68.50552       59.62035       35.82808
H         68.83378       59.14807       38.33201
H         69.99020       57.81834       38.66097
H         70.60971       59.44033       38.19314
N         71.06307       58.39096       33.70554
C         71.11943       58.23481       32.25830
C         72.25198       59.11166       31.74064
O         73.21845       58.57811       31.21497
C         69.71872       58.53607       31.66590
C         69.67246       58.41136       30.14439
O         69.27026       59.81316       32.04470
H         70.95730       59.34948       34.06004
H         71.35142       57.17892       31.98979
H         69.03593       57.75789       32.08969
H         68.31349       59.73028       32.29915
H         69.99919       57.39829       29.82902
H         68.62929       58.56935       29.79466
H         70.32382       59.17483       29.67037
N         72.22662       60.46274       31.92900
C         73.35822       61.34947       31.67730
C         73.74917       62.03050       32.97906
O         73.02024       61.93196       33.95816
C         72.97335       62.42059       30.63362
C         72.95248       61.86403       29.20443
C         72.47781       62.93373       28.20863
C         72.70361       62.48556       26.75825
N         72.18027       63.47455       25.81541
H         71.38887       60.89143       32.34683
H         74.24786       60.77972       31.32975
H         73.72521       63.24047       30.63654
H         71.98922       62.86244       30.90964
H         72.28920       60.97565       29.12647
H         73.99222       61.55651       28.95429
H         73.04258       63.87925       28.36426
H         71.39789       63.13280       28.38764
H         72.20777       61.50751       26.57496
H         73.79770       62.36247       26.58953
H         72.41138       63.17486       24.84060
H         71.14075       63.53983       25.91084
H         72.60976       64.41210       25.99087
N         74.90448       62.75228       33.05852
C         75.26918       63.50491       34.25472
C         75.33784       62.62595       35.50221
O         74.59364       62.92049       36.42698
C         76.56126       64.34257       34.09007
C         76.45995       65.35094       32.93237
C         77.55502       66.37619       33.00695
O         78.72722       66.04145       32.94992
O         77.24010       67.67907       33.14584
H         75.51838       62.78738       32.23103
H         74.45960       64.25143       34.42556
H         77.46992       63.71957       33.95726
H         76.68358       64.91628       35.03583
H         75.48922       65.88739       32.99385
H         76.50968       64.82660       31.95415
N         76.15753       61.54486       35.66011
C         77.07113       61.00839       34.67443
H         78.10344       61.03545       35.08216
H         76.79937       59.95110       34.47107
H         77.05162       61.55022       33.71471
H         76.11905       61.04258       36.56118
Ca        67.62254       56.91600       46.90397
O         70.28513       56.72106       44.71732
H         71.03296       57.25989       45.07863
H         70.20753       57.00211       43.77178
O         66.22119       56.91315       44.15552
H         66.55938       56.11490       43.67720
H         65.24750       56.92681       43.97684
O         69.65137       59.12375       46.89154
H         70.60720       59.29237       46.69783
H         69.53247       59.41019       47.83135
O         67.50767       58.41339       49.49583
H         67.98332       57.54540       49.47428
H         66.69674       58.26926       48.94643
O         66.03119       59.36175       46.09509
H         65.07498       59.34336       46.35021
H         66.40467       60.14360       46.57408
O         68.21704       59.06468       43.95519
H         68.48325       59.85281       44.49156
H         68.76984       59.12186       43.13612

Ca 1.0



