%chk=apoCaM-CA-Ng.loop4.water3.frame476.chk
%nprocshared=20
%mem=10GB
%nosave
#b3lyp/svp scf=(tight,noincore,xqc) Test 
#IOP(5/87=12) Density=Current Pop=(MK,readradii) iop(6/33=2) iop(6/42=6)

apoCaM-CA-Ng.loop4.water3.frame476 

   -3  1 
C         30.57959       57.21590       96.26519
C         29.62895       57.39191       97.44630
O         30.09787       56.59643       98.48179
H         31.61498       57.49324       96.56368
H         30.58090       56.15326       95.94007
H         30.26507       57.85043       95.41202
N         29.60339       58.79857       97.87702
C         28.78999       59.05836       99.08671
C         29.45912       58.48462      100.33450
O         28.95026       57.56274      100.94793
C         27.27416       58.78673       98.87624
C         26.86095       57.37453       98.57142
O         26.98658       56.41101       99.49825
O         26.34568       57.10852       97.49661
H         29.23428       59.37847       97.08814
H         28.80997       60.15746       99.26078
H         26.95248       59.42910       98.02582
H         26.71410       59.12491       99.77405
N         30.63310       59.04941      100.74707
C         31.47634       58.69087      101.89158
C         30.71899       58.80591      103.21551
O         30.91574       59.79737      103.90439
C         32.25073       57.35187      101.68887
C         33.35226       57.12905      102.76522
C         32.87964       57.27452      100.28339
C         34.51285       58.14215      102.73239
H         30.97117       59.85214      100.19309
H         32.25133       59.48640      101.90527
H         31.53056       56.51086      101.75947
H         33.78940       56.11849      102.61152
H         32.89618       57.14292      103.77721
H         33.57474       58.11674      100.09517
H         33.41857       56.31220      100.15087
H         32.10485       57.32941       99.50352
H         35.25591       57.88396      103.51448
H         35.04663       58.11921      101.75957
H         34.16816       59.17630      102.92887
N         29.84564       57.84511      103.64393
C         28.98411       58.00669      104.81161
C         29.56011       57.37051      106.08517
O         29.66889       58.12138      107.04560
C         27.53046       57.60278      104.48270
C         26.89049       58.46519      103.41981
O         25.73663       58.24797      103.08668
O         27.55982       59.48236      102.84157
H         29.73654       56.98366      103.09612
H         28.90365       59.09087      105.06101
H         26.91260       57.70162      105.40277
H         27.49217       56.56034      104.12672
N         30.00386       56.08440      106.25445
C         30.07730       55.01554      105.27582
C         28.74931       54.33103      105.03165
O         27.75320       54.74095      105.60921
H         30.41748       55.86133      107.17445
H         30.73354       54.22593      105.69968
H         30.57690       55.38242      104.36421
N         28.63487       53.22378      104.23701
C         29.75575       52.54793      103.57697
C         30.44687       53.45043      102.56197
O         29.85363       54.44298      102.16403
C         29.24902       51.23726      102.91191
C         28.22980       51.47404      101.82748
O         28.53203       52.08498      100.81462
O         26.98228       50.98508      101.95997
H         27.69429       52.80704      104.15214
H         30.48288       52.27331      104.36928
H         28.79183       50.60530      103.70370
H         30.06589       50.64438      102.47008
N         31.69059       53.19856      102.06063
C         32.57695       52.11944      102.45842
C         33.22789       52.38126      103.78921
O         32.96340       53.39690      104.41743
H         32.06379       53.85140      101.35959
H         33.41403       52.08143      101.72892
H         32.09325       51.13221      102.41419
N         34.19223       51.52453      104.21957
C         35.06249       51.80236      105.35491
C         36.44175       52.24723      104.85848
O         37.24232       52.67852      105.67636
C         35.01834       50.64767      106.39012
C         35.25944       49.22388      105.85784
C         36.66621       48.97038      105.41268
N         37.67989       48.97083      106.30614
O         36.88903       48.71143      104.24289
H         34.39949       50.70130      103.63350
H         34.69182       52.69789      105.90109
H         33.98281       50.63766      106.79589
H         35.69858       50.86881      107.24100
H         34.54599       49.00951      105.03565
H         35.03410       48.49185      106.66345
H         37.50501       49.15418      107.30420
H         38.63717       48.74909      106.00556
N         36.73598       52.28940      103.51983
C         37.89168       52.96597      102.93509
C         38.83657       52.01294      102.21626
O         39.83345       52.49010      101.69350
C         37.41190       54.09253      101.95702
C         36.77865       55.25879      102.72312
C         36.42947       53.59563      100.87376
H         36.08067       51.87501      102.84842
H         38.50986       53.44387      103.72729
H         38.30417       54.50827      101.43890
H         35.87771       54.93095      103.28228
H         37.51295       55.68663      103.43826
H         36.49155       56.06267      102.01188
H         36.85636       52.74242      100.30709
H         35.45924       53.28781      101.31544
H         36.20198       54.41271      100.15653
N         38.63017       50.66587      102.18248
C         39.56351       49.73448      101.55570
C         38.90324       48.89343      100.47594
O         39.60988       48.07254       99.90142
C         40.16464       48.81118      102.63728
C         40.96270       49.57552      103.66635
N         42.06419       50.27720      103.31231
O         40.62363       49.54589      104.83788
H         37.80897       50.26952      102.65066
H         40.39844       50.27592      101.06206
H         40.85048       48.07212      102.16912
H         39.34286       48.24778      103.13246
H         42.38310       50.30625      102.33371
H         42.60810       50.78631      104.02495
N         37.59180       49.02551      100.11240
C         36.98899       48.16197       99.09413
C         35.62213       48.62563       98.62488
O         34.99446       49.42426       99.30432
C         36.92375       46.69558       99.59928
C         36.32177       46.54933      100.99241
C         34.98011       46.87430      101.27017
C         37.12567       46.06725      102.04337
C         34.45868       46.71719      102.55940
C         36.60258       45.90878      103.33000
C         35.26876       46.23074      103.59346
O         34.78147       46.07441      104.84133
H         37.01821       49.76113      100.55159
H         37.62462       48.22758       98.18259
H         37.96022       46.30405       99.62654
H         36.37723       46.05387       98.87638
H         34.32609       47.24599      100.50184
H         38.16395       45.81395      101.87117
H         33.42394       46.97239      102.75314
H         37.23799       45.54053      104.12571
H         33.86652       46.29265      105.06954
N         35.11402       48.12041       97.45107
C         33.82862       48.43919       96.81878
C         33.76439       49.81606       96.15605
O         33.38175       49.87974       94.99482
C         32.62984       48.20489       97.76844
C         32.48084       46.72775       98.17732
C         32.16231       45.84960       96.99757
O         31.04410       46.06454       96.27758
O         32.91336       44.93885       96.68718
H         35.68398       47.41377       96.96014
H         33.68754       47.73289       95.97003
H         31.68805       48.51157       97.26086
H         32.72233       48.83773       98.67389
H         31.64772       46.63532       98.90608
H         33.41112       46.37269       98.66419
N         34.04154       50.95984       96.83095
C         33.76495       52.29660       96.32016
C         34.61834       52.70047       95.12672
O         34.33900       53.74650       94.55492
C         33.94811       53.33490       97.45596
C         33.15705       53.02601       98.74982
C         31.67265       53.05573       98.55557
O         31.10700       52.28827       97.79445
O         30.96602       53.96181       99.23841
H         34.38481       50.88324       97.77896
H         32.70650       52.31337       95.98673
H         33.65813       54.34556       97.09112
H         35.02633       53.36602       97.72840
H         33.43514       53.80596       99.48872
H         33.43308       52.05827       99.20754
N         35.67669       51.95940       94.69457
C         36.47474       52.36943       93.55819
H         37.29973       51.64573       93.39067
H         35.84264       52.40856       92.64522
H         36.91500       53.37305       93.74358
H         35.94429       51.09390       95.18335
Ca        28.95623       54.65754       98.64067
O         25.87614       53.35509       99.40696
H         25.01800       53.61302       99.82815
H         26.00614       52.40994       99.67082
O         27.75493       53.15178       96.43309
H         27.83668       54.12777       96.28417
H         28.67088       52.85808       96.66878
O         26.88863       54.79059      102.02446
H         26.42246       54.00028      102.39502
H         26.17634       55.46963      101.92020

Ca 1.0



