%chk=apoCaM-CA-Ng.loop1.water1.frame856.chk
%nprocshared=20
%mem=10GB
%nosave
#b3lyp/svp scf=(tight,noincore,xqc) Test 
#IOP(5/87=12) Density=Current Pop=(MK,readradii) iop(6/33=2) iop(6/42=6)

apoCaM-CA-Ng.loop1.water1.frame856 

   0  1 
C         44.66456       61.60911       23.34811
C         43.90282       62.89555       23.45428
O         42.82606       62.91117       24.03334
H         45.65483       61.72171       23.83604
H         44.11066       60.77925       23.83524
H         44.81418       61.35679       22.27633
N         44.40691       64.02038       22.87947
C         43.72002       65.30485       22.87304
C         43.28379       65.61614       21.45536
O         44.09365       65.55504       20.54338
C         44.56729       66.42370       23.52559
C         45.91912       66.72924       22.93280
O         46.36501       66.10587       21.98548
O         46.66043       67.71194       23.47874
H         45.30292       63.94065       22.37643
H         42.80262       65.25421       23.49982
H         44.73084       66.15199       24.59085
H         43.96728       67.36032       23.50422
N         41.97845       65.90946       21.19948
C         41.42692       66.08065       19.85778
C         42.09332       67.14901       18.99291
O         41.74629       67.19754       17.81934
C         39.87811       66.25575       19.90445
C         39.28730       67.32013       20.86169
C         39.73571       68.76524       20.62289
C         39.05280       69.69492       21.64336
N         39.46926       71.08429       21.46514
H         41.33920       65.94247       22.00354
H         41.61599       65.13109       19.30843
H         39.45117       65.28753       20.24742
H         39.49412       66.42570       18.87497
H         39.51506       67.05210       21.91305
H         38.18021       67.27353       20.76040
H         39.46867       69.07614       19.58992
H         40.83335       68.84233       20.75853
H         39.31621       69.36968       22.67569
H         37.94723       69.62742       21.53196
H         39.19973       71.42056       20.51267
H         38.99025       71.67671       22.18219
H         40.50351       71.16886       21.59493
N         43.04948       68.01810       19.44240
C         43.66468       68.99261       18.54261
C         44.58788       68.34861       17.43788
O         44.73608       66.97105       17.64122
C         44.31420       70.17836       19.32028
C         45.46978       70.04301       20.30885
O         45.77670       71.04399       20.93587
O         46.19039       68.92566       20.54154
H         43.30189       68.03612       20.44005
H         42.81339       69.48889       18.02620
H         43.48062       70.61639       19.91332
H         44.62165       70.94945       18.58266
N         44.09590       68.53222       16.06887
C         43.90437       69.91402       15.62235
C         42.62015       69.92125       14.85682
O         42.55519       69.28919       13.81178
H         44.72105       68.03542       15.39032
H         44.74987       70.26289       14.98827
H         43.83374       70.62209       16.46749
N         41.51398       70.52836       15.37111
C         40.21559       70.43374       14.71988
C         40.18351       71.21091       13.41196
O         39.26987       70.99255       12.62861
C         39.10934       70.92152       15.67897
C         37.72634       70.71025       15.13063
O         37.33455       69.58464       14.86582
O         36.90821       71.76255       14.94085
H         41.58461       70.99289       16.29008
H         40.03561       69.35394       14.51090
H         39.26668       71.99999       15.90053
H         39.18321       70.35784       16.63529
N         41.11191       72.17098       13.12398
C         41.06798       72.94735       11.89809
C         41.46654       72.15883       10.66951
O         41.35907       72.71561        9.58519
H         41.83474       72.41588       13.81566
H         41.77279       73.80288       11.97536
H         40.04416       73.36404       11.77615
N         41.97664       70.89301       10.74459
C         42.39718       70.12944        9.57563
C         43.89656       69.88895        9.62694
O         44.52872       70.18464       10.63462
C         41.63128       68.77692        9.52838
C         40.10992       68.95119        9.59502
O         41.96704       68.03056        8.38596
H         42.10456       70.44921       11.66284
H         42.18400       70.70578        8.64846
H         41.92753       68.18060       10.42021
H         41.66634       68.54673        7.59204
H         39.74656       69.55204        8.73547
H         39.62230       67.95342        9.57328
H         39.81597       69.45254       10.53896
N         44.53613       69.37110        8.54437
C         45.95849       69.07002        8.50112
C         46.59124       70.03400        7.52348
O         47.43522       70.81366        7.94112
C         46.15997       67.57433        8.12747
C         45.46451       66.67430        9.18553
C         47.65745       67.23161        8.00646
C         45.38150       65.20335        8.78042
H         43.99079       69.19408        7.68762
H         46.43037       69.24154        9.49654
H         45.67635       67.39555        7.14189
H         44.41353       67.00321        9.32466
H         45.98129       66.77056       10.16585
H         47.80484       66.17834        7.69537
H         48.14299       67.86259        7.23301
H         48.17523       67.39553        8.97585
H         44.83471       64.63969        9.56603
H         44.81878       65.10724        7.82696
H         46.38374       64.74725        8.66703
N         46.18819       70.07758        6.21859
C         46.65751       71.09689        5.28769
C         47.41919       70.46793        4.13971
O         47.38808       69.25774        3.96815
C         45.44628       71.91541        4.76970
C         44.65287       72.54416        5.92188
O         45.88239       72.93539        3.90847
H         45.48786       69.40069        5.88163
H         47.36241       71.78542        5.80267
H         44.77494       71.21534        4.21626
H         45.11500       73.16845        3.32281
H         45.29772       73.23608        6.50351
H         43.78923       73.11246        5.51636
H         44.25331       71.76221        6.60179
N         48.18390       71.26414        3.34198
C         48.97369       70.77828        2.22305
C         50.44144       70.87137        2.59228
O         51.11647       69.85079        2.56621
C         48.60073       71.56663        0.93862
C         49.32001       71.02597       -0.29793
O         48.89772       72.93450        1.06741
H         48.24529       72.26634        3.57198
H         48.74438       69.70713        2.02387
H         47.50879       71.43328        0.74779
H         48.09749       73.37799        1.45241
H         48.99610       71.59517       -1.19579
H         50.42052       71.13043       -0.19293
H         49.06720       69.95563       -0.45225
N         50.99473       72.05507        2.98082
C         52.39078       72.20749        3.36987
C         52.47361       72.67683        4.81638
O         51.47002       73.11812        5.36247
C         53.02933       73.16779        2.34796
C         54.51981       73.47778        2.53561
C         55.11896       74.15457        1.28394
C         54.44984       75.48436        0.88879
N         55.04239       76.01607       -0.33950
H         50.40406       72.89971        3.00713
H         52.91273       71.22708        3.31409
H         52.45985       74.12226        2.34705
H         52.90140       72.68317        1.35399
H         55.07328       72.52523        2.67977
H         54.66427       74.11388        3.43577
H         55.02723       73.44687        0.43075
H         56.20099       74.33439        1.46343
H         54.56685       76.22260        1.71201
H         53.36540       75.33168        0.70376
H         54.90409       75.33787       -1.12478
H         54.56914       76.91422       -0.59027
H         56.06369       76.19363       -0.20464
N         53.63095       72.54083        5.52797
C         53.74550       72.93177        6.93229
C         52.72629       72.19277        7.80785
O         51.89563       72.87994        8.38534
C         55.18967       72.77355        7.46107
C         56.16970       73.73458        6.77209
C         57.55663       73.56796        7.32480
O         58.13966       72.50073        7.21470
O         58.16757       74.59937        7.93821
H         54.45073       72.13100        5.05560
H         53.50785       74.01798        7.00725
H         55.55556       71.74365        7.31183
H         55.19777       73.00274        8.55029
H         55.83245       74.78010        6.94241
H         56.20066       73.54821        5.67831
N         52.65461       70.83699        7.96957
C         53.54533       69.86434        7.37750
H         54.56150       69.95683        7.80028
H         53.19965       68.84095        7.63886
H         53.55331       69.95819        6.27325
H         51.89206       70.46394        8.55763
Ca        46.13722       67.10030       19.31486
O         45.42145       63.77196       18.46736
H         44.59857       63.65647       17.92872
H         45.60326       62.87271       18.83984

Ca 1.0



