%chk=apoCaM-CA-Ng.loop3.water5.frame29.chk
%nprocshared=20
%mem=10GB
%nosave
#b3lyp/svp scf=(tight,noincore,xqc) Test 
#IOP(5/87=12) Density=Current Pop=(MK,readradii) iop(6/33=2) iop(6/42=6)

apoCaM-CA-Ng.loop3.water5.frame29 

   0  1 
C         76.09024       73.17788       62.29737
C         75.95795       74.20954       63.38120
O         76.10160       75.38996       63.10367
H         77.10155       73.22978       61.84745
H         75.94050       72.15048       62.69383
H         75.32661       73.36005       61.51431
N         75.68073       73.82203       64.65454
C         75.51767       74.71950       65.79296
C         76.80427       75.48173       66.10269
O         76.76556       76.66855       66.39655
C         74.28866       75.63890       65.62088
C         73.05383       74.85222       65.27121
O         72.46746       75.06906       64.22229
O         72.59429       73.89930       66.10444
H         75.57515       72.81311       64.84610
H         75.32638       74.06852       66.67683
H         74.48418       76.38064       64.81735
H         74.10452       76.19495       66.56538
N         77.99011       74.81396       66.07951
C         79.28208       75.35889       66.50301
C         80.27289       75.45594       65.33778
O         81.46107       75.62268       65.57428
C         79.80747       74.46928       67.66360
C         80.17882       73.03467       67.22234
C         80.34971       72.03693       68.37315
C         81.47752       72.36385       69.35425
N         81.64148       71.26393       70.30756
H         77.96141       73.84074       65.75317
H         79.15982       76.38448       66.91711
H         79.00218       74.43015       68.43045
H         80.69752       74.94039       68.13514
H         81.09469       73.06573       66.59410
H         79.37410       72.59098       66.61217
H         80.56458       71.04978       67.90906
H         79.39101       71.95206       68.93219
H         81.24069       73.30169       69.90341
H         82.42921       72.50533       68.79753
H         80.75031       71.09672       70.82974
H         81.91134       70.39040       69.79745
H         82.39786       71.50026       70.98831
N         79.83084       75.43797       64.04857
C         80.67353       75.48728       62.85539
C         80.53358       76.85762       62.21580
O         79.42416       77.35847       62.12985
C         80.18044       74.36116       61.91214
C         80.86288       74.24564       60.57172
O         80.20007       74.36496       59.55492
O         82.16352       73.91219       60.46686
H         78.81388       75.41607       63.88333
H         81.74545       75.31062       63.09574
H         79.09763       74.52659       61.72198
H         80.29083       73.38513       62.43123
N         81.62731       77.54270       61.77015
C         81.54725       78.85494       61.13950
C         80.86373       78.87417       59.77481
O         80.70503       79.96699       59.24912
H         82.56264       77.13365       61.90639
H         82.57311       79.25754       60.99824
H         81.00847       79.54403       61.82803
N         80.40550       77.74399       59.15195
C         79.61424       77.77110       57.91805
C         78.12799       77.58170       58.23336
O         77.30856       77.82925       57.35965
C         80.08162       76.68603       56.92716
C         81.51394       76.82544       56.48189
N         81.90713       77.87131       55.71953
O         82.32145       75.95846       56.77777
H         80.53660       76.83727       59.61102
H         79.70040       78.77268       57.44104
H         79.44680       76.70459       56.02072
H         79.94514       75.69782       57.41251
H         81.23436       78.59450       55.42793
H         82.88306       77.93990       55.39323
N         77.70652       77.20738       59.47726
C         76.32663       77.21216       59.91859
C         75.49631       76.17716       59.22169
O         75.74888       74.99705       59.40995
H         78.39406       76.95552       60.18098
H         75.91984       78.23490       59.77481
H         76.28647       76.99190       61.00668
N         74.45229       76.56937       58.43800
C         73.55110       75.70482       57.68231
C         74.18167       75.13788       56.41274
O         73.48263       75.11263       55.41142
C         72.84351       74.63479       58.53180
C         71.67636       74.06219       57.75766
C         70.54724       74.86099       57.48983
C         71.71229       72.74614       57.27466
C         69.47825       74.35172       56.74869
C         70.64577       72.24219       56.52296
C         69.52506       73.04408       56.25766
O         68.49209       72.57142       55.53163
H         74.26063       77.58186       58.37962
H         72.75300       76.39358       57.32008
H         72.45126       75.07421       59.47523
H         73.57760       73.84571       58.79743
H         70.49281       75.87961       57.85555
H         72.57352       72.11840       57.46107
H         68.61571       74.97692       56.55075
H         70.69421       71.23029       56.14289
H         68.48821       71.67599       55.16482
N         75.47515       74.68904       56.36445
C         76.23510       74.36178       55.16163
C         76.64949       75.65573       54.46029
O         77.84581       75.86522       54.32621
C         75.59443       73.26245       54.25991
C         75.30667       71.99502       55.11450
C         76.55780       72.92360       53.10041
C         74.71094       70.81992       54.33401
H         76.02448       74.63355       57.22032
H         77.19703       73.91078       55.50823
H         74.64563       73.63238       53.81906
H         74.58588       72.25943       55.91638
H         76.24510       71.64339       55.59820
H         76.78618       73.82030       52.49537
H         77.51547       72.51558       53.49049
H         76.11052       72.18738       52.40344
H         74.49395       69.98613       55.03528
H         73.76821       71.12074       53.83236
H         75.42712       70.43015       53.58151
N         75.75521       76.60846       54.05842
C         76.17325       77.87874       53.47717
C         76.73435       77.70000       52.08043
O         77.38259       78.61344       51.59069
C         75.01048       78.88652       53.46394
O         73.93288       78.40388       52.70154
H         74.75779       76.46929       54.20533
H         76.96577       78.30563       54.13300
H         75.34125       79.85835       53.04092
H         74.69404       79.09143       54.51511
H         73.22574       78.11684       53.33852
N         76.52079       76.54841       51.37984
C         77.07651       76.25795       50.06882
C         78.59451       76.19997       50.11323
O         79.23696       76.55223       49.13311
C         76.53091       77.22087       49.00262
H         75.93520       75.80999       51.79254
H         76.73633       75.23622       49.78815
H         76.89189       76.92588       47.99497
H         75.42072       77.18518       48.99883
H         76.85099       78.26533       49.19459
N         79.23568       75.74755       51.23191
C         80.67893       75.57842       51.31721
C         81.02314       74.20011       51.84758
O         80.16161       73.51378       52.38177
C         81.28705       76.65521       52.21245
H         78.67912       75.51125       52.06245
H         81.12670       75.68315       50.30439
H         80.87535       76.58692       53.24145
H         82.39201       76.54549       52.25274
H         81.05207       77.65805       51.79587
N         82.27817       73.70762       51.65827
C         82.70029       72.35728       52.01129
C         81.70014       71.33401       51.49475
O         81.24064       70.49108       52.25364
C         83.02075       72.21720       53.52547
C         84.10152       73.23015       53.94530
C         84.76372       72.90007       55.25756
O         84.14698       73.13598       56.43456
O         85.92820       72.52748       55.25811
H         82.95255       74.28795       51.13568
H         83.65657       72.16606       51.47338
H         83.43201       71.19219       53.66658
H         82.11733       72.32361       54.16519
H         83.69245       74.26503       53.97340
H         84.89725       73.20665       53.17157
N         81.28405       71.39734       50.19769
C         80.28483       70.51480       49.63062
H         79.40662       71.11692       49.31312
H         80.70663       70.00123       48.74251
H         79.93644       69.74746       50.35301
H         81.66420       72.13430       49.58428
Ca        83.05107       73.55172       58.39137
O         80.56512       72.89154       56.97912
H         80.10114       72.11124       57.37423
H         79.96473       73.20499       56.25755
O         83.98471       76.13935       59.90163
H         84.74729       76.05104       60.52697
H         83.95383       77.10293       59.67716
O         85.57452       75.36304       57.43106
H         86.17727       75.82624       58.06431
H         85.12054       76.09069       56.93644
O         85.49270       72.59942       59.61504
H         86.16413       72.37596       58.92273
H         86.01254       73.01535       60.34720
O         83.01516       70.72803       59.19817
H         82.17567       70.58364       59.70256
H         82.91432       70.17967       58.38015

Ca 1.0



