%chk=apoCaM-CA-Ng.loop4.water2.frame443.chk
%nprocshared=20
%mem=10GB
%nosave
#b3lyp/svp scf=(tight,noincore,xqc) Test 
#IOP(5/87=12) Density=Current Pop=(MK,readradii) iop(6/33=2) iop(6/42=6)

apoCaM-CA-Ng.loop4.water2.frame443 

   -3  1 
C         84.30858       65.72532       71.23130
C         83.50724       64.54048       71.67711
O         84.09085       63.51091       71.97600
H         85.39331       65.48363       71.21707
H         83.99817       66.01536       70.20502
H         84.13715       66.57568       71.92224
N         82.14789       64.62195       71.74301
C         81.27239       63.51507       72.11206
C         81.52862       63.03846       73.57532
O         80.76412       61.90013       73.80077
C         81.20930       62.44553       70.96491
C         82.48180       61.80526       70.42847
O         83.16628       60.88439       71.13575
O         82.84379       62.05937       69.29016
H         81.70144       65.52223       71.51016
H         80.22720       63.90217       72.13650
H         80.75769       62.98701       70.10323
H         80.48928       61.64248       71.23244
N         81.12743       64.10476       74.51833
C         81.26530       63.91057       75.98812
C         80.24256       62.92405       76.55643
O         79.28105       63.38671       77.15650
C         82.72572       63.67067       76.48481
C         82.80698       63.47614       78.02863
C         83.66115       64.81752       76.05173
C         82.27633       64.64202       78.87386
H         81.60115       64.99739       74.25005
H         80.95943       64.89395       76.41287
H         83.11048       62.73416       76.02727
H         83.86576       63.29093       78.30982
H         82.23664       62.57048       78.31614
H         83.73285       64.87984       74.94733
H         83.30112       65.79578       76.43466
H         84.68761       64.64924       76.43919
H         82.39116       64.39448       79.95049
H         82.83776       65.57710       78.67713
H         81.19660       64.81415       78.68708
N         80.36505       61.56970       76.42816
C         79.33257       60.65383       76.90654
C         79.26202       60.64655       78.44598
O         78.23942       61.09763       78.94215
C         79.43750       59.26243       76.24188
C         79.28174       59.31773       74.74625
O         78.16275       59.82410       74.19565
O         80.15798       58.87222       74.02262
H         81.18456       61.18684       75.94298
H         78.35340       61.04019       76.53886
H         78.63274       58.60889       76.63993
H         80.40826       58.80078       76.43008
N         80.25517       60.23251       79.30256
C         81.51565       59.61655       78.92172
C         81.31226       58.16226       78.53759
O         80.21755       57.65976       78.75740
H         80.10349       60.37720       80.31344
H         82.21069       59.61698       79.78671
H         81.95836       60.23778       78.12996
N         82.25124       57.39573       77.90285
C         83.62089       57.77543       77.54145
C         83.69775       59.07098       76.74752
O         82.79083       59.33547       75.97532
C         84.27774       56.63005       76.72582
C         83.54635       56.30808       75.44001
O         83.46912       57.12983       74.54038
O         82.98846       55.09420       75.27134
H         81.94603       56.44305       77.64625
H         84.19120       57.89109       78.48092
H         84.28772       55.71777       77.35990
H         85.33025       56.87838       76.47848
N         84.76076       59.92520       76.81087
C         85.97672       59.71835       77.57877
C         85.79656       59.86761       79.06490
O         84.70064       60.13872       79.53346
H         84.73299       60.76414       76.21739
H         86.71306       60.49707       77.28305
H         86.41686       58.73104       77.33438
N         86.89075       59.74813       79.86627
C         86.85963       59.95050       81.30760
C         87.51516       61.27451       81.68817
O         87.38790       61.65906       82.84313
C         87.36949       58.69196       82.05378
C         88.76654       58.17367       81.66236
C         89.87415       59.10170       82.05615
N         90.09085       59.38297       83.36003
O         90.60228       59.57758       81.19911
H         87.79953       59.56224       79.41686
H         85.80535       60.08177       81.63914
H         86.65964       57.86999       81.81488
H         87.31242       58.85757       83.15167
H         88.80211       57.96187       80.57366
H         88.94605       57.20703       82.18074
H         89.50175       58.97113       84.09698
H         90.86162       59.99634       83.64040
N         88.11312       62.08370       80.75529
C         88.41721       63.49364       80.99697
C         89.89713       63.85115       80.91890
O         90.19651       65.00499       81.19113
C         87.59643       64.38839       80.00836
C         86.08468       64.22447       80.22487
C         87.93459       64.12520       78.52514
H         88.26432       61.73198       79.80225
H         88.10985       63.77307       82.02921
H         87.83894       65.45287       80.22273
H         85.76016       63.18317       80.01513
H         85.81708       64.48140       81.27132
H         85.52600       64.91005       79.55076
H         89.01980       64.26033       78.33616
H         87.63913       63.10395       78.20623
H         87.38379       64.84035       77.87769
N         90.87553       62.96209       80.57185
C         92.29029       63.34568       80.52355
C         92.88757       63.24445       79.13256
O         94.05843       63.58941       79.01243
C         93.13018       62.46942       81.48145
C         92.80474       62.67353       82.93648
N         92.93915       63.88717       83.51812
O         92.45803       61.72184       83.61335
H         90.62338       61.99388       80.33414
H         92.42396       64.40756       80.81752
H         94.20638       62.72578       81.37065
H         93.00674       61.39884       81.20406
H         93.25559       64.70348       82.97657
H         92.73709       64.00704       84.52177
N         92.20239       62.80760       78.03581
C         92.87436       62.64919       76.74286
C         91.93646       62.33603       75.59608
O         90.84227       61.84801       75.82743
C         93.96419       61.53880       76.83961
C         93.44397       60.28812       77.53684
C         93.94408       59.95019       78.80887
C         92.44997       59.47176       76.96520
C         93.44657       58.84332       79.50128
C         91.95272       58.36389       77.66118
C         92.44300       58.04961       78.93208
O         91.94194       56.98838       79.59654
H         91.20191       62.57245       78.12218
H         93.33662       63.62673       76.47721
H         94.80571       61.94301       77.43637
H         94.39587       61.29558       75.84514
H         94.70818       60.55610       79.27944
H         92.04962       59.68478       75.98614
H         93.83566       58.61068       80.48470
H         91.17882       57.75217       77.21437
H         92.24393       56.74769       80.48433
N         92.38018       62.54679       74.31617
C         91.71527       62.21395       73.05455
C         90.51100       63.09151       72.71073
O         90.55073       63.73020       71.66731
C         91.43048       60.70198       72.96605
C         90.98059       60.25144       71.56343
C         91.99948       60.57753       70.50193
O         93.24949       60.08207       70.58460
O         91.69976       61.30153       69.56567
H         93.33109       62.93831       74.21701
H         92.46659       62.42734       72.26037
H         90.65703       60.40997       73.70604
H         92.36849       60.15761       73.21699
H         90.00950       60.73048       71.31368
H         90.83054       59.15127       71.57397
N         89.41693       63.18593       73.51591
C         88.24913       64.01280       73.22883
C         88.66167       65.43351       72.89770
O         88.20151       65.95836       71.89293
C         87.25305       64.01598       74.41899
C         86.75881       62.63038       74.89311
C         86.12184       61.81605       73.80377
O         86.78499       61.40824       72.86418
O         84.82061       61.49257       73.88099
H         89.40853       62.66333       74.38403
H         87.72288       63.60642       72.33884
H         86.36432       64.61634       74.12225
H         87.72361       64.51634       75.29384
H         86.01729       62.80147       75.70171
H         87.57796       62.03452       75.34410
N         89.58932       66.08382       73.65460
C         90.08841       67.40593       73.33331
H         91.17217       67.33900       73.09781
H         89.57366       67.85350       72.45672
H         89.94815       68.07633       74.20472
H         90.00437       65.60306       74.46696
Ca        82.30651       60.44084       73.11904
O         85.24316       58.57348       72.00835
H         85.64860       59.06450       71.24996
H         85.76987       58.85346       72.79829
O         82.32464       57.76217       71.33782
H         81.72385       58.33160       70.79444
H         82.95120       57.36558       70.68157

Ca 1.0



