%chk=apoCaM-CA-Ng.loop3.water6.frame1118.chk
%nprocshared=20
%mem=10GB
%nosave
#b3lyp/svp scf=(tight,noincore,xqc) Test 
#IOP(5/87=12) Density=Current Pop=(MK,readradii) iop(6/33=2) iop(6/42=6)

apoCaM-CA-Ng.loop3.water6.frame1118 

   0  1 
C         77.29898       91.87258       59.72555
C         78.52937       92.42200       60.38223
O         78.46206       93.48474       60.97939
H         76.42958       92.54518       59.89029
H         77.47435       91.77068       58.63459
H         77.06299       90.87495       60.15283
N         79.69725       91.72626       60.32436
C         80.93459       92.16762       60.95705
C         82.07522       92.30219       59.94903
O         83.20817       92.45798       60.38336
C         81.27121       91.21893       62.12849
C         81.50137       89.79701       61.71617
O         80.69520       88.81974       62.17287
O         82.43927       89.51671       60.99303
H         79.70334       90.81903       59.83191
H         80.81152       93.16689       61.42911
H         80.42351       91.24893       62.84780
H         82.17451       91.58438       62.66424
N         81.85338       92.32952       58.59561
C         82.90928       92.51684       57.59935
C         83.69387       93.78994       57.89450
O         84.88751       93.72343       58.15713
C         83.81872       91.26902       57.49619
C         83.04709       90.02709       57.00587
C         83.97960       88.84704       56.65651
C         84.76261       88.24678       57.83802
N         83.88540       87.55717       58.78277
H         80.88857       92.26941       58.23964
H         82.44244       92.64431       56.59736
H         84.31362       91.06563       58.46788
H         84.60441       91.49343       56.74069
H         82.52172       90.29942       56.06411
H         82.27279       89.72992       57.74351
H         84.70999       89.20397       55.89824
H         83.38108       88.03708       56.18552
H         85.35202       89.03159       58.35747
H         85.48609       87.50435       57.43473
H         83.16556       88.20753       59.15412
H         83.40975       86.75476       58.31020
H         84.45598       87.19182       59.57924
N         83.05699       94.99476       57.88840
C         83.69334       96.24782       58.29643
C         82.93196       96.80113       59.48165
O         82.50472       97.94812       59.46262
C         83.82057       97.22915       57.09882
C         82.54541       97.56968       56.36839
O         82.63665       98.14109       55.15265
O         81.45921       97.17028       56.75742
H         82.05816       95.00696       57.63514
H         84.72941       96.05563       58.65025
H         84.47457       96.72377       56.35471
H         84.32789       98.16763       57.40815
N         82.68082       95.98685       60.54794
C         81.84414       96.39164       61.65966
C         82.61634       97.17002       62.69860
O         83.82886       97.28418       62.58296
H         82.99506       95.00787       60.51386
H         81.43231       95.49131       62.16090
H         80.98985       96.97187       61.25443
N         81.99603       97.76491       63.75702
C         80.54786       97.80007       63.93197
C         80.03435       96.51183       64.57349
O         80.55219       96.15234       65.62169
C         80.15814       98.99142       64.83246
C         78.66488       99.22687       64.80434
N         77.91316       99.09453       65.91953
O         78.12861       99.54472       63.75250
H         82.58322       98.31793       64.40226
H         80.08970       98.02988       62.95234
H         80.64183       99.91854       64.45501
H         80.52327       98.81547       65.86807
H         78.33932       98.82344       66.81640
H         76.89510       99.25359       65.87931
N         78.97485       95.79624       64.09443
C         78.24501       96.13501       62.88349
C         76.85195       95.54496       62.84020
O         76.40639       94.92501       63.79817
H         78.65795       94.99103       64.65808
H         78.84631       95.82224       62.00552
H         78.06882       97.22282       62.82774
N         76.08786       95.73833       61.72951
C         74.69934       95.28731       61.62759
C         74.22094       95.29069       60.17533
O         74.89493       95.84035       59.31222
C         73.81821       96.21398       62.51093
C         72.36142       95.83061       62.59480
C         71.36638       96.69757       62.10808
C         71.98165       94.61438       63.18420
C         70.01596       96.34825       62.20395
C         70.63041       94.26793       63.28029
C         69.64262       95.13449       62.78961
O         68.33606       94.81353       62.87753
H         76.53593       96.21722       60.93345
H         74.66326       94.22887       61.96848
H         73.91449       97.24757       62.10819
H         74.20796       96.23676       63.55050
H         71.63232       97.64473       61.65495
H         72.73214       93.93846       63.57352
H         69.25853       97.02354       61.82532
H         70.35271       93.32769       63.73896
H         68.03551       93.98527       63.27804
N         73.08075       94.63022       59.81825
C         72.62102       94.56498       58.43351
C         72.29314       95.95768       57.92167
O         71.44633       96.63061       58.49323
C         71.44293       93.56227       58.23650
C         70.16340       93.92959       59.03755
C         71.15260       93.41862       56.72711
C         69.06188       92.87408       58.92985
H         72.56934       94.11168       60.54460
H         73.46324       94.14562       57.83694
H         71.80296       92.57412       58.60178
H         69.74428       94.89763       58.69708
H         70.41350       94.01953       60.11322
H         72.08234       93.14919       56.18114
H         70.42261       92.61086       56.52642
H         70.76068       94.36947       56.30643
H         68.20713       93.16700       59.57460
H         68.68183       92.79251       57.89159
H         69.43980       91.88518       59.26544
N         72.97926       96.46648       56.86135
C         72.77590       97.82648       56.37264
C         73.94981       98.29915       55.52689
O         74.85686       97.52949       55.23912
C         71.43489       97.95075       55.62061
O         71.43685       97.12701       54.48673
H         73.71404       95.87792       56.44230
H         72.76724       98.50431       57.25485
H         71.27524       99.00804       55.31326
H         70.59843       97.65566       56.29099
H         70.57036       97.28762       54.02850
N         74.01852       99.60621       55.14871
C         75.16100      100.20207       54.46952
C         75.42694       99.58813       53.10504
O         76.56620       99.60839       52.65913
C         76.39854      100.16532       55.38234
H         73.24185      100.23638       55.39924
H         74.93085      101.27588       54.29570
H         77.23744      100.72227       54.91710
H         76.16348      100.64922       56.35404
H         76.73188       99.12505       55.57872
N         74.40913       99.06793       52.35818
C         74.57976       98.54675       51.00910
C         75.59065       97.41629       50.97921
O         76.58238       97.51972       50.26910
C         74.94449       99.68684       50.04027
H         73.45574       99.04928       52.74937
H         73.60553       98.13743       50.66107
H         75.91860      100.15211       50.29798
H         75.00910       99.29815       49.00115
H         74.15950      100.47143       50.06909
N         75.37950       96.28119       51.70718
C         76.29422       95.14489       51.66897
C         75.65238       93.95405       50.95545
O         76.32923       92.95750       50.74622
C         76.70946       94.76345       53.11219
C         77.97827       93.89226       53.15626
C         79.17916       94.74194       52.87651
O         79.57724       95.58910       53.84004
O         79.84984       94.59080       51.86804
H         74.52363       96.20914       52.27940
H         77.20223       95.42698       51.09371
H         75.85685       94.23539       53.59211
H         76.90703       95.67723       53.71724
H         77.91893       93.03406       52.46299
H         78.11629       93.46749       54.17395
N         74.35094       93.97163       50.54544
C         73.74256       92.83223       49.89619
H         72.67938       93.05338       49.66423
H         74.27774       92.60363       48.95079
H         73.78192       91.94972       50.57038
H         73.75482       94.79557       50.70077
Ca        81.22718       97.09811       53.75946
O         79.55827       99.53716       54.36961
H         79.28678       98.88006       55.05897
H         79.12202       99.21809       53.54019
O         82.21374       99.59254       51.85295
H         81.83234      100.16491       51.14052
H         83.18554       99.77981       51.82891
O         84.28053       97.11818       52.97712
H         84.62015       96.19072       53.04081
H         84.80583       97.62219       53.64814
O         82.46000       94.47718       54.25657
H         83.31311       94.18629       54.66452
H         81.83334       94.55518       55.01927
O         79.70206       98.15548       50.93436
H         79.08549       97.38844       51.03794
H         79.27148       98.73634       50.25797
O         82.35193       96.52187       50.62793
H         83.21346       96.55013       50.14077
H         81.68203       96.29415       49.93538

Ca 1.0



