%chk=apoCaM-CA-Ng.loop2.water3.frame1189.chk
%nprocshared=20
%mem=10GB
%nosave
#b3lyp/svp scf=(tight,noincore,xqc) Test 
#IOP(5/87=12) Density=Current Pop=(MK,readradii) iop(6/33=2) iop(6/42=6)

apoCaM-CA-Ng.loop2.water3.frame1189 

   -2  1 
C         42.70131       14.83805       86.40202
C         42.48146       15.86282       87.48349
O         41.97321       16.92670       87.15902
H         43.77933       14.59028       86.32412
H         42.10912       13.92322       86.56833
H         42.36958       15.24490       85.42220
N         42.85695       15.68868       88.78652
C         43.50301       14.49689       89.35012
C         44.24232       14.83805       90.64809
O         44.36016       16.01205       90.97437
C         42.49411       13.32537       89.48574
C         41.32109       13.52141       90.41211
O         41.46888       13.39322       91.74520
O         40.19456       13.58491       89.94658
H         42.70267       16.49987       89.40282
H         44.30572       14.16045       88.65828
H         43.01290       12.39282       89.78691
H         42.08701       13.09794       88.48990
N         44.80001       13.86444       91.43253
C         45.59025       14.13438       92.63640
C         44.84645       14.92672       93.71950
O         45.47710       15.26435       94.71202
C         46.90079       14.83739       92.24248
H         44.68826       12.87742       91.16256
H         45.88967       13.16175       93.08677
H         46.72083       15.83877       91.80215
H         47.55764       14.95927       93.13048
H         47.44951       14.21620       91.50158
N         43.52366       15.25687       93.61361
C         42.80624       16.09041       94.57401
C         41.67001       15.32868       95.23931
O         41.43021       14.17477       94.91125
C         42.29363       17.36374       93.85761
C         41.39520       17.07555       92.67955
O         40.24121       16.40336       92.84192
O         41.70703       17.46482       91.56640
H         42.98382       14.92378       92.81140
H         43.48725       16.41627       95.38981
H         43.17496       17.94026       93.49940
H         41.74320       18.01060       94.57151
N         40.94211       15.93043       96.22541
C         39.85238       15.28451       96.94086
C         38.64632       15.01241       96.06977
O         38.66215       15.31469       94.88580
H         41.19736       16.88500       96.51852
H         39.52059       15.94919       97.76658
H         40.21956       14.33442       97.38758
N         37.55290       14.40772       96.61489
C         36.38451       14.00614       95.83975
C         35.08217       14.60101       96.37132
O         34.02838       14.07030       96.04419
C         36.34417       12.46648       95.80344
C         37.57430       11.91193       95.06319
N         37.59238       10.45586       95.12893
O         37.51550       12.30759       93.72104
H         37.57736       14.15310       97.61491
H         36.45355       14.34758       94.78401
H         35.43634       12.11014       95.26802
H         36.30974       12.07677       96.84479
H         37.68710       10.16610       96.12877
H         38.44491       10.11811       94.62748
N         35.04981       15.79378       97.03668
C         33.79043       16.47294       97.32781
C         33.01085       15.85932       98.46859
O         33.55078       15.00856       99.16180
H         35.93022       16.29398       97.22957
H         33.18637       16.49557       96.39757
H         33.99912       17.51198       97.62670
N         31.72211       16.22399       98.75565
C         30.88726       17.09635       97.92227
C         31.36559       18.54673       97.88575
O         31.36810       19.20958       98.91353
C         29.41130       17.05792       98.41036
C         28.47623       17.85515       97.48668
O         28.97038       15.72422       98.45086
H         31.27739       15.75982       99.56427
H         30.88616       16.66869       96.89504
H         29.37339       17.49487       99.43695
H         28.20701       15.69176       99.08598
H         27.43557       17.80671       97.87169
H         28.77069       18.92431       97.43799
H         28.49418       17.42919       96.46061
N         31.72146       19.10973       96.69533
C         32.02773       20.52821       96.48659
C         31.16349       21.07825       95.34258
O         30.98151       20.36013       94.36837
C         33.54138       20.75401       96.19458
C         34.08767       19.80522       95.09471
C         34.33913       20.64356       97.50964
C         35.52579       20.11362       94.67965
H         31.74627       18.49552       95.86710
H         31.81927       21.10993       97.39739
H         33.66174       21.80618       95.85149
H         33.46330       19.89818       94.18297
H         34.04320       18.75145       95.44121
H         34.26127       19.63599       97.95154
H         35.40715       20.89483       97.36395
H         33.94574       21.37002       98.25333
H         35.59660       21.15237       94.29376
H         36.23264       19.98063       95.52260
H         35.83215       19.41227       93.87519
N         30.65767       22.35349       95.29876
C         30.83934       23.37945       96.32961
C         30.61318       24.79951       95.79059
O         30.12014       24.97078       94.68562
C         29.88320       23.12333       97.52704
C         28.43024       23.11040       97.11862
O         27.90928       24.10311       96.63535
O         27.69142       21.99890       97.30189
H         30.17068       22.61644       94.42829
H         31.90250       23.35923       96.65046
H         30.03164       23.89976       98.30703
H         30.09470       22.14876       98.00157
N         30.96880       25.87484       96.55693
C         30.71483       27.26797       96.19179
C         32.02438       28.04270       96.04428
O         32.86486       27.92818       96.92364
C         29.84965       27.91803       97.29243
C         29.48318       29.33651       96.92443
C         30.33286       30.40599       97.26141
C         28.31367       29.59420       96.18959
C         30.01764       31.70885       96.86496
C         28.00339       30.89896       95.79425
C         28.85514       31.95483       96.13004
H         31.42483       25.69713       97.46444
H         30.12934       27.31830       95.25299
H         30.37293       27.90032       98.27419
H         28.91937       27.32119       97.41524
H         31.24476       30.22956       97.81829
H         27.65432       28.78302       95.90741
H         30.67928       32.52675       97.11986
H         27.10702       31.08989       95.21899
H         28.61667       32.96292       95.81676
N         32.24585       28.92592       95.01268
C         31.29648       29.25177       93.95911
C         31.20392       28.15319       92.91427
O         30.21351       28.11262       92.20041
C         31.82143       30.58250       93.41256
C         33.31989       30.41020       93.54731
C         33.43914       29.74575       94.91949
H         30.28320       29.44270       94.36026
H         31.44420       30.87176       92.40891
H         31.53533       31.38516       94.13286
H         33.63646       29.68123       92.76891
H         33.92431       31.33555       93.43347
H         34.37951       29.15558       94.96816
H         33.41105       30.49184       95.74435
N         32.17858       27.20562       92.80128
C         32.06833       26.03412       91.94307
C         31.84789       26.43988       90.49154
O         32.68918       27.14609       89.95420
C         33.30939       25.09615       92.01396
C         33.76226       24.67505       93.43205
C         34.73996       25.61806       94.10134
O         35.20792       26.58113       93.51154
O         35.16423       25.34814       95.34955
H         33.00303       27.30974       93.38852
H         31.21173       25.44589       92.32694
H         34.18266       25.49829       91.45644
H         32.98976       24.17173       91.48265
H         34.31097       23.71299       93.35376
H         32.87020       24.50404       94.06927
N         30.76121       26.04662       89.76585
C         29.71518       25.18669       90.27700
H         28.95778       25.00266       89.48549
H         30.14324       24.20773       90.58197
H         29.20755       25.66575       91.14027
H         30.68096       26.36375       88.78713
Ca        39.61568       12.82572       92.94534
O         41.48415       10.48012       93.43335
H         40.97101       10.41685       94.27788
H         40.82309       10.27350       92.72538
O         37.28164       14.77897       91.87005
H         36.37115       14.38970       91.87435
H         37.19859       15.60975       92.40216
O         38.01384       11.41659       90.84847
H         38.16308       10.65427       91.46271
H         38.65507       11.26782       90.10930

Ca 1.0



