%chk=apoCaM-CA-Ng.loop3.water4.frame136.chk
%nprocshared=20
%mem=10GB
%nosave
#b3lyp/svp scf=(tight,noincore,xqc) Test 
#IOP(5/87=12) Density=Current Pop=(MK,readradii) iop(6/33=2) iop(6/42=6)

apoCaM-CA-Ng.loop3.water4.frame136 

   0  1 
C         65.01975       47.92062       -1.54544
C         66.26485       47.10461       -1.73136
O         66.59592       46.34004       -0.84422
H         64.15163       47.24264       -1.40237
H         65.12615       48.56195       -0.64526
H         64.82350       48.57015       -2.42329
N         67.01986       47.21450       -2.85915
C         68.23601       46.44250       -3.09841
C         69.27980       46.76227       -2.02908
O         69.73328       45.88395       -1.30792
C         67.89768       44.93725       -3.23581
C         69.04173       44.08543       -3.72445
O         70.13306       44.56970       -3.98159
O         68.84769       42.76494       -3.90142
H         66.72557       47.88146       -3.58868
H         68.64732       46.76495       -4.08129
H         67.07486       44.82938       -3.97581
H         67.54644       44.53291       -2.26879
N         69.70746       48.04756       -1.90294
C         70.73244       48.51041       -0.96253
C         70.24475       48.60901        0.48706
O         71.00198       49.10097        1.31328
C         71.20846       49.91131       -1.40667
C         71.90674       49.87147       -2.77967
C         72.24136       51.26737       -3.32205
C         73.16945       52.08042       -2.40757
N         73.49113       53.36940       -3.01687
H         69.31014       48.73030       -2.56713
H         71.61772       47.83661       -1.00186
H         71.94058       50.29882       -0.66732
H         70.33379       50.59850       -1.43518
H         71.24927       49.39004       -3.53357
H         72.83314       49.26081       -2.70083
H         71.29544       51.83091       -3.47773
H         72.73327       51.13551       -4.31043
H         74.10864       51.51260       -2.22638
H         72.67302       52.26732       -1.43122
H         74.09849       53.91448       -2.36363
H         74.00406       53.22196       -3.91620
H         72.61403       53.91116       -3.19521
N         69.01189       48.17945        0.87867
C         68.46681       48.36355        2.22427
C         69.42382       47.83722        3.28271
O         69.81783       46.68079        3.22570
C         67.09561       47.66074        2.30669
C         66.21952       47.97548        3.51898
O         65.82806       49.31376        3.58634
O         66.80355       47.64590        4.73853
H         68.41256       47.72227        0.18505
H         68.30448       49.45337        2.37423
H         67.25946       46.56492        2.25657
H         66.48549       47.96042        1.42903
N         69.83830       48.66465        4.28164
C         70.79035       48.30505        5.31762
C         70.40281       47.05405        6.06461
O         71.23233       46.15959        6.15665
H         69.46142       49.62196        4.30967
H         70.86047       49.14790        6.04012
H         71.79761       48.16664        4.86646
N         69.16059       46.90596        6.60886
C         68.77461       45.72404        7.37264
C         67.82524       44.80459        6.60715
O         66.80956       44.39729        7.14980
C         68.26441       46.14124        8.77321
C         67.07506       47.07745        8.73650
N         67.15347       48.30800        9.29030
O         66.02862       46.72368        8.21588
H         68.47236       47.65918        6.47893
H         69.66547       45.08267        7.54848
H         69.10210       46.63973        9.30800
H         67.99376       45.23527        9.35757
H         68.01866       48.63998        9.74004
H         66.33505       48.92915        9.27423
N         68.17273       44.32568        5.37628
C         67.50061       43.18943        4.75047
C         66.02259       43.34139        4.43549
O         65.40571       42.33181        4.12838
H         69.02868       44.68227        4.92554
H         67.59975       42.33658        5.45521
H         68.03116       42.90677        3.81480
N         65.38998       44.54345        4.44721
C         63.96153       44.71974        4.18170
C         63.34882       45.55367        5.27479
O         63.92781       46.55406        5.67667
C         63.74880       45.35685        2.80549
C         64.04136       44.32862        1.74140
C         63.16257       43.24785        1.54016
C         65.19420       44.42023        0.96232
C         63.43651       42.28519        0.56481
C         65.47428       43.45500       -0.00742
C         64.59348       42.38523       -0.21325
O         64.85079       41.44987       -1.14912
H         65.95362       45.38412        4.61481
H         63.42574       43.74540        4.17018
H         64.39159       46.25397        2.71515
H         62.69526       45.68771        2.66902
H         62.26278       43.15422        2.13592
H         65.88016       45.22886        1.12749
H         62.75067       41.46076        0.41671
H         66.37699       43.53548       -0.59291
H         65.64029       41.48676       -1.70794
N         62.16057       45.17646        5.81996
C         61.61187       45.80662        7.00926
C         62.55840       45.45912        8.14327
O         63.01813       46.35585        8.83548
C         60.14960       45.33089        7.27828
C         59.19766       45.61370        6.07562
C         59.57033       45.97748        8.55335
C         59.02830       47.09372        5.70328
H         61.66873       44.36477        5.41677
H         61.57105       46.90952        6.87730
H         60.16064       44.22887        7.43343
H         58.19183       45.20398        6.31384
H         59.55450       45.07714        5.17280
H         58.53808       45.60783        8.73380
H         60.16921       45.73273        9.44473
H         59.55170       47.08307        8.47835
H         58.59997       47.67917        6.54157
H         59.99206       47.54370        5.39464
H         58.32764       47.17928        4.84648
N         62.97197       44.16528        8.31848
C         63.97123       43.79247        9.31451
C         63.42920       43.92573       10.72198
O         64.22148       43.86183       11.65125
C         64.49670       42.35859        9.09166
O         65.19672       42.23102        7.87992
H         62.60830       43.44089        7.68054
H         64.83822       44.48197        9.20592
H         63.67177       41.61550        9.14099
H         65.21908       42.11829        9.90162
H         64.62842       42.58155        7.14835
N         62.10051       44.14751       10.95823
C         61.54706       44.43387       12.26930
C         62.25754       45.64736       12.82700
O         62.87251       45.56176       13.88301
C         61.62598       43.19912       13.17853
H         61.44162       44.16149       10.17347
H         60.46706       44.67964       12.15553
H         61.14404       43.41968       14.15461
H         61.08255       42.35369       12.70491
H         62.67370       42.88695       13.36371
N         62.24411       46.82007       12.12820
C         63.01522       47.97846       12.56100
C         62.64056       49.25801       11.83257
O         61.87138       49.24139       10.88134
C         64.51649       47.70320       12.35505
H         61.67292       46.87139       11.27045
H         62.78768       48.15699       13.63522
H         64.84254       46.79612       12.90245
H         64.72410       47.54502       11.27296
H         65.13579       48.55226       12.71013
N         63.13508       50.43737       12.30372
C         62.84086       51.75884       11.76583
C         61.33832       51.99792       11.72178
O         60.81085       52.34932       10.67406
C         63.48588       51.97909       10.38032
C         64.97651       51.63292       10.33589
C         65.53247       51.99955        8.99060
O         65.95010       51.13683        8.23947
O         65.55901       53.28793        8.59983
H         63.73439       50.40890       13.14385
H         63.29512       52.50235       12.45959
H         63.34673       53.05074       10.11276
H         62.97149       51.35868        9.61694
H         65.09380       50.54148       10.51463
H         65.54258       52.18028       11.11870
N         60.57744       51.78276       12.82967
C         59.13539       51.93458       12.83857
H         58.84473       52.67038       13.61513
H         58.73714       52.28233       11.86134
H         58.66646       50.95499       13.06928
H         61.03111       51.46544       13.69939
Ca        65.75905       49.32326        5.86077
O         62.39442       48.99814        5.01534
H         62.12221       48.37210        4.29834
H         61.95195       49.85209        4.78211
O         68.26777       50.53224        6.28732
H         68.21703       51.05981        7.12090
H         67.91935       51.13633        5.58361
O         63.24387       49.20299        7.90643
H         62.33242       49.41958        8.22690
H         63.74200       48.94562        8.72243
O         63.89907       51.76689        5.31401
H         64.53358       52.08083        4.62184
H         64.18186       52.23133        6.14107

Ca 1.0



