%chk=apoCaM-CA-Ng.loop2.water3.frame30.chk
%nprocshared=20
%mem=10GB
%nosave
#b3lyp/svp scf=(tight,noincore,xqc) Test 
#IOP(5/87=12) Density=Current Pop=(MK,readradii) iop(6/33=2) iop(6/42=6)

apoCaM-CA-Ng.loop2.water3.frame30 

   -2  1 
C         75.22908       36.10196       35.70314
C         75.30028       34.72315       36.28644
O         76.32815       34.35870       36.84014
H         74.40980       36.67326       36.18565
H         76.18734       36.64435       35.85151
H         75.03055       36.02806       34.61244
N         74.22599       33.89141       36.19452
C         74.24661       32.51471       36.67226
C         75.22576       31.70328       35.84441
O         76.10597       31.08008       36.42026
C         72.83894       31.89414       36.60375
C         72.81393       30.52899       37.23833
O         73.14843       30.38192       38.53576
O         72.48327       29.55172       36.58697
H         73.36350       34.25545       35.75991
H         74.54712       32.51363       37.74564
H         72.49349       31.83955       35.54834
H         72.13125       32.53822       37.16900
N         75.15645       31.71290       34.47416
C         76.08953       31.00187       33.60030
C         77.53699       31.43634       33.81836
O         78.43370       30.74242       33.35929
C         75.92003       29.48572       33.77827
H         74.42230       32.27713       34.02066
H         75.83600       31.21396       32.53804
H         76.18077       29.15499       34.80338
H         74.86691       29.20350       33.56429
H         76.56807       28.94113       33.05771
N         77.83914       32.56869       34.52270
C         79.18055       32.97018       34.90985
C         79.75960       31.87644       35.80192
O         80.72976       31.23154       35.42842
C         80.04408       33.32325       33.66891
C         81.29821       34.00945       34.12131
O         82.38680       33.47763       33.97487
O         81.19689       35.16440       34.80774
H         77.07989       33.17761       34.84146
H         79.09190       33.90099       35.51644
H         79.49718       34.03181       33.01123
H         80.28127       32.41073       33.08231
N         79.15903       31.59232       36.99635
C         79.51000       30.44737       37.82695
C         80.19889       30.81170       39.12573
O         80.48751       29.90292       39.89172
H         78.38245       32.19103       37.31740
H         80.19687       29.76141       37.28713
H         78.57856       29.87812       38.03792
N         80.57248       32.08955       39.41476
C         81.38951       32.42451       40.57948
C         80.60283       32.29463       41.85679
O         79.62052       33.00595       42.02187
C         81.92834       33.87659       40.48799
C         83.00214       34.06304       39.39862
N         84.22054       33.33690       39.73122
O         82.52920       33.59395       38.18064
H         80.33741       32.83557       38.74574
H         82.27128       31.74712       40.61877
H         82.39847       34.16304       41.45506
H         81.08067       34.57634       40.31527
H         84.60813       33.71568       40.62355
H         84.92132       33.52723       38.97987
N         81.01770       31.45126       42.84629
C         80.39395       31.46549       44.15549
C         80.67882       32.78179       44.85358
O         81.50343       33.55558       44.38439
H         81.81891       30.82105       42.68901
H         80.79389       30.64520       44.79083
H         79.30024       31.30793       44.03281
N         80.00257       33.10965       45.98472
C         80.20449       34.36511       46.70733
C         80.02063       35.57372       45.79037
O         80.87562       36.44841       45.78203
C         79.23875       34.43231       47.91859
C         79.50565       35.65986       48.79597
O         77.90458       34.44575       47.47646
H         79.29644       32.44097       46.33113
H         81.24256       34.37912       47.11061
H         79.42214       33.52223       48.53806
H         77.34834       34.07717       48.21095
H         80.55087       35.63882       49.17164
H         79.34282       36.59969       48.22770
H         78.81895       35.65338       49.66834
N         78.92501       35.66825       44.98680
C         78.61286       36.81171       44.11891
C         79.71866       37.12412       43.10672
O         80.71075       36.41185       43.04457
C         77.24481       36.57854       43.38584
C         77.30339       35.34480       42.43823
C         76.09580       36.49050       44.40891
C         76.02798       35.12450       41.62570
H         78.26932       34.87724       45.01927
H         78.51474       37.71400       44.76188
H         77.01612       37.46782       42.76418
H         77.50828       34.41459       43.00569
H         78.13026       35.48953       41.71019
H         76.18118       35.59979       45.06258
H         76.09331       37.39969       45.04725
H         75.11299       36.45394       43.89835
H         75.16979       34.88505       42.28561
H         75.79497       36.02389       41.01823
H         76.17463       34.26106       40.94214
N         79.57316       38.17995       42.24671
C         80.52925       38.50422       41.19364
C         80.84289       40.01897       41.13695
O         81.57508       40.43452       40.25002
C         79.93494       37.95178       39.88082
C         80.91707       37.79959       38.75127
O         80.53520       37.31474       37.69871
O         82.21383       38.13755       38.88943
H         78.69541       38.71709       42.26518
H         81.47801       37.95126       41.36932
H         79.06223       38.56378       39.57183
H         79.56985       36.91939       40.07791
N         80.35858       40.89609       42.07183
C         80.66060       42.33294       42.10758
C         80.01143       43.07311       40.94139
O         78.79269       43.02409       40.84052
C         80.16248       42.91089       43.46197
C         80.45783       44.37920       43.70970
C         81.38696       44.74952       44.70021
C         79.78240       45.39419       43.00344
C         81.64077       46.09840       44.96875
C         80.03663       46.74144       43.27878
C         80.96555       47.09349       44.25950
H         79.79161       40.52342       42.84552
H         81.76277       42.45929       42.10893
H         80.66479       42.31131       44.25348
H         79.06865       42.74882       43.58085
H         81.91629       43.99545       45.26887
H         79.04193       45.15631       42.25470
H         82.35713       46.37234       45.73253
H         79.50564       47.51382       42.73699
H         81.15712       48.13705       44.47449
N         80.73063       43.82565       40.04645
C         80.12407       44.65230       39.00971
C         79.43683       43.81834       37.95070
O         78.39913       44.24586       37.46376
C         81.29102       45.49630       38.48596
C         82.47703       44.58226       38.67671
C         82.17591       43.95217       40.03764
H         79.37746       45.36571       39.42797
H         81.15253       45.92824       37.47109
H         81.44343       46.34039       39.19814
H         82.41397       43.79665       37.89311
H         83.47329       45.06752       38.60125
H         82.70446       42.97709       40.08753
H         82.47510       44.60947       40.88389
N         79.89369       42.58072       37.61077
C         79.15868       41.69738       36.71340
C         77.77931       41.44477       37.29483
O         76.79444       41.70492       36.61784
C         79.89956       40.36064       36.52364
C         81.25101       40.53117       35.80890
C         81.93889       39.20948       35.61821
O         83.15404       38.99644       36.15855
O         81.40831       38.32740       34.96177
H         80.75242       42.22957       38.05743
H         79.05391       42.17237       35.71183
H         79.26288       39.68313       35.91204
H         80.05598       39.90017       37.51610
H         81.91626       41.19648       36.39793
H         81.08817       40.99130       34.81109
N         77.64355       40.98802       38.57237
C         76.36400       40.78598       39.22081
H         75.50820       41.01586       38.55196
H         76.28100       39.73135       39.55467
H         76.29754       41.44988       40.10907
H         78.48913       40.80580       39.13228
Ca        82.45751       35.24015       36.64076
O         85.28360       36.53786       37.79967
H         85.27300       37.52386       37.89047
H         86.18523       36.33089       37.44634
O         84.23042       36.49850       34.35947
H         83.66419       36.86056       33.63228
H         85.03648       36.15403       33.89936
O         84.71483       33.30184       36.23682
H         84.62270       32.69872       35.45775
H         85.46862       33.90020       36.00561

Ca 1.0



