%chk=apoCaM-CA-Ng.loop2.water5.frame497.chk
%nprocshared=20
%mem=10GB
%nosave
#b3lyp/svp scf=(tight,noincore,xqc) Test 
#IOP(5/87=12) Density=Current Pop=(MK,readradii) iop(6/33=2) iop(6/42=6)

apoCaM-CA-Ng.loop2.water5.frame497 

   -2  1 
C         69.64892       65.15531       62.95044
C         69.81967       64.78058       61.50536
O         69.15893       63.85685       61.05454
H         68.59118       65.42481       63.14626
H         69.93273       64.29463       63.59294
H         70.28575       66.02214       63.22582
N         70.72009       65.44123       60.72483
C         70.98667       65.10778       59.33068
C         72.37986       64.51642       59.25972
O         73.27841       65.10139       58.67459
C         70.75846       66.33245       58.40643
C         71.65354       67.52046       58.66353
O         72.40987       67.91163       57.78833
O         71.59683       68.18874       59.83066
H         71.28792       66.18124       61.16149
H         70.28858       64.32264       58.96608
H         69.70225       66.66516       58.50068
H         70.90956       65.99452       57.35693
N         72.61278       63.32818       59.89054
C         73.93727       62.73703       60.04011
C         74.23605       62.56331       61.52061
O         73.32187       62.62283       62.32581
C         74.00632       61.40130       59.30296
H         71.81489       62.83749       60.32129
H         74.70439       63.41560       59.60916
H         73.25256       60.69234       59.70755
H         73.79927       61.56118       58.22266
H         75.01766       60.95390       59.40403
N         75.52323       62.42182       61.95282
C         75.88182       62.41337       63.36857
C         76.68157       61.17618       63.72730
O         77.70746       60.91582       63.11950
C         76.65630       63.70274       63.70211
C         77.12035       63.73207       65.13936
O         78.02192       62.99290       65.50194
O         76.55194       64.55481       66.04126
H         76.28154       62.40653       61.25638
H         74.97416       62.44627       64.00948
H         75.96272       64.55126       63.52161
H         77.53717       63.83644       63.03753
N         76.28935       60.42085       64.79473
C         77.08304       59.29591       65.27396
C         76.58634       58.60513       66.54518
O         77.24019       57.64038       66.92417
H         75.43525       60.71015       65.27243
H         78.11343       59.65604       65.48472
H         77.13410       58.53708       64.46422
N         75.48211       58.98655       67.25733
C         74.98627       58.27271       68.42758
C         73.61986       57.72529       68.10257
O         72.72035       58.50437       67.80643
C         74.86890       59.21401       69.64183
C         76.19948       59.70122       70.14693
N         77.10061       58.83140       70.66036
O         76.45401       60.89579       70.12438
H         74.91502       59.79235       66.97219
H         75.65068       57.42249       68.69591
H         74.36889       58.67506       70.47545
H         74.23175       60.08348       69.36429
H         76.89130       57.82372       70.71157
H         78.00267       59.16800       71.02761
N         73.38600       56.38505       68.12385
C         72.08627       55.82793       67.80868
C         71.04062       56.20226       68.83483
O         71.35052       56.81907       69.84513
H         74.15675       55.73383       68.34000
H         72.14936       54.71918       67.77332
H         71.77834       56.18868       66.80242
N         69.74965       55.84458       68.61143
C         68.65218       56.14134       69.52833
C         68.54680       57.63833       69.82010
O         68.41343       58.00434       70.97927
C         67.30703       55.54726       69.01218
C         66.80724       56.10958       67.66794
O         67.38695       54.14174       68.95509
H         69.55100       55.33941       67.73582
H         68.84945       55.62741       70.49665
H         66.52575       55.78764       69.76574
H         67.88821       53.88357       68.13822
H         67.52480       55.90977       66.84633
H         65.83917       55.63218       67.40592
H         66.63565       57.19829       67.72848
N         68.64105       58.55576       68.81799
C         68.52331       60.00351       68.99373
C         69.84024       60.67242       68.63701
O         70.36708       60.42308       67.56118
C         67.35012       60.51692       68.10160
C         66.00542       60.08246       68.74219
C         67.38968       62.04776       67.90575
C         64.78079       60.36323       67.87161
H         68.81102       58.21097       67.86052
H         68.29297       60.27806       70.04769
H         67.45528       60.06110       67.09090
H         65.87983       60.59656       69.72105
H         66.01817       58.99292       68.94095
H         68.32670       62.34846       67.39642
H         66.57917       62.38999       67.23390
H         67.31867       62.57798       68.87789
H         64.87025       59.82604       66.90416
H         63.87115       60.00347       68.39671
H         64.64667       61.44676       67.68448
N         70.38256       61.60924       69.47662
C         71.55360       62.40058       69.12104
C         72.35423       62.74897       70.37345
O         72.63343       63.91340       70.61229
C         71.07729       63.65482       68.34569
C         72.18290       64.49865       67.77015
O         71.89875       65.51180       67.15261
O         73.47698       64.14914       67.90757
H         69.86206       61.87335       70.32827
H         72.21102       61.79707       68.45728
H         70.45207       64.28101       69.01930
H         70.44429       63.33482       67.49292
N         72.75589       61.76838       71.22761
C         73.55150       62.01926       72.43094
C         72.81714       62.97126       73.37965
O         71.67440       62.67983       73.70592
C         73.81922       60.67629       73.14978
C         74.81237       60.79158       74.27998
C         76.15311       61.12185       74.01092
C         74.42102       60.54169       75.60573
C         77.08300       61.20370       75.05123
C         75.35422       60.62854       76.64409
C         76.68384       60.95806       76.36710
H         72.48427       60.79825       71.00353
H         74.52701       62.43879       72.11162
H         74.23655       59.93997       72.43428
H         72.84903       60.26899       73.51158
H         76.48086       61.30730       72.99589
H         73.39600       60.28091       75.83679
H         78.11409       61.45376       74.83643
H         75.04746       60.43636       77.66395
H         77.40555       61.01971       77.17141
N         73.39069       64.10859       73.89251
C         72.71887       64.98305       74.84620
C         71.87570       66.05898       74.16557
O         71.22123       66.81770       74.86738
C         73.90048       65.63419       75.57685
C         74.88682       65.83684       74.43659
C         74.77222       64.50770       73.69071
H         72.09628       64.41094       75.56898
H         73.65421       66.54660       76.16236
H         74.34734       64.88361       76.26805
H         74.48709       66.64752       73.78667
H         75.92190       66.11193       74.72991
H         75.04373       64.64352       72.62172
H         75.42482       63.74594       74.16411
N         71.92443       66.24953       72.81814
C         71.28034       67.36726       72.14350
C         69.78011       67.17710       72.09387
O         69.06207       68.02231       72.60971
C         71.86642       67.55196       70.72404
C         73.37533       67.86862       70.79070
C         73.95967       68.10892       69.43318
O         73.94735       67.22643       68.59062
O         74.53443       69.29352       69.15146
H         72.53166       65.64107       72.26184
H         71.51236       68.30677       72.69633
H         71.34955       68.40533       70.23162
H         71.69792       66.63875       70.11207
H         73.93790       67.03305       71.25585
H         73.52890       68.77670       71.41347
N         69.23785       66.08952       71.47714
C         67.81035       65.86427       71.36164
H         67.21228       66.68073       71.81911
H         67.53668       65.79501       70.28767
H         67.54424       64.91037       71.86215
H         69.86346       65.38294       71.06439
Ca        74.72612       65.81577       65.62494
O         72.14889       67.68025       64.96652
H         72.20398       68.46044       64.35979
H         71.89492       68.06095       65.84413
O         74.85128       69.28155       65.92609
H         74.09799       69.11350       66.54473
H         74.75311       70.23288       65.67165
O         75.94113       67.40035       63.45002
H         75.80912       66.88966       62.61243
H         75.15450       67.99933       63.49996
O         77.10797       67.33407       66.72052
H         77.91718       66.76542       66.76649
H         77.10198       67.83022       67.57675
O         72.85535       65.38659       63.41455
H         72.83937       64.53602       63.92143
H         73.39889       65.20011       62.60913

Ca 1.0



