%chk=apoCaM-CA-Ng.loop4.water4.frame621.chk
%nprocshared=20
%mem=10GB
%nosave
#b3lyp/svp scf=(tight,noincore,xqc) Test 
#IOP(5/87=12) Density=Current Pop=(MK,readradii) iop(6/33=2) iop(6/42=6)

apoCaM-CA-Ng.loop4.water4.frame621 

   -3  1 
C         96.06930       36.63450       86.05808
C         97.28726       37.32444       85.51786
O         97.43077       37.43603       84.30931
H         95.41029       36.28650       85.23505
H         96.37500       35.75899       86.66869
H         95.49825       37.33947       86.69933
N         98.20820       37.83005       86.38349
C         99.42256       38.53995       85.99545
C         99.09956       39.79961       85.21485
O         99.68059       40.03876       84.16354
C        100.40599       37.61887       85.24267
C        100.80946       36.45155       86.08826
O        101.44467       36.65904       87.25765
O        100.57425       35.31365       85.71682
H         98.03212       37.72305       87.39502
H         99.92286       38.87912       86.93064
H        101.32825       38.18193       84.98315
H         99.94372       37.26274       84.29855
N         98.16958       40.66933       85.69359
C         97.89874       41.94929       85.05245
C         99.07387       42.88336       85.34326
O         99.43541       42.97339       86.50870
C         96.53329       42.56400       85.51011
C         96.47698       42.95925       87.01295
C         95.38701       41.60282       85.12618
C         95.17433       43.65356       87.41519
H         97.65128       40.40881       86.54468
H         97.75937       41.76390       83.97223
H         96.39186       43.49568       84.91671
H         97.27948       43.69143       87.22820
H         96.62198       42.07322       87.66458
H         94.39514       42.06477       85.29896
H         95.43500       41.35755       84.04367
H         95.44406       40.65707       85.70515
H         95.24058       43.96975       88.47759
H         95.00896       44.55539       86.78781
H         94.30494       42.97249       87.32477
N         99.74886       43.62736       84.41870
C         99.47680       43.73828       82.99170
C        100.70281       43.36102       82.17228
O        100.57484       42.56248       81.25445
C         98.94661       45.15629       82.66896
C         99.84371       46.30681       83.04506
O         99.44421       47.18503       83.98463
O        100.90263       46.48967       82.46912
H        100.50357       44.22408       84.78966
H         98.65799       43.07696       82.67527
H         97.99376       45.27669       83.23030
H         98.70543       45.22991       81.58575
N        101.93071       43.88251       82.45351
C        103.11168       43.63626       81.65141
C        102.98977       44.33177       80.31973
O        102.75838       45.53297       80.30195
H        102.05396       44.48820       83.27528
H        103.29862       42.54406       81.55335
H        103.98844       44.08434       82.16664
N        103.18131       43.65263       79.15713
C        103.14006       44.30902       77.85282
C        101.74039       44.75385       77.42423
O        101.65196       45.38434       76.38019
C        103.86942       43.45364       76.77943
C        103.46607       42.00185       76.68815
O        102.23002       41.63851       76.31986
O        104.28982       41.13231       76.92465
H        103.44303       42.65733       79.21660
H        103.74508       45.24237       77.91453
H        104.95010       43.46733       77.04342
H        103.77488       43.93363       75.78095
N        100.60812       44.51082       78.15709
C         99.28380       44.95660       77.72394
C         98.78526       44.24740       76.47126
O         97.72588       44.60146       75.97534
H        100.66998       44.01546       79.05551
H         99.31659       46.05423       77.54914
H         98.54383       44.76258       78.53089
N         99.48929       43.21742       75.92676
C         99.14142       42.44723       74.74224
C         97.84159       41.68874       74.94760
O         97.03730       41.61626       74.03245
C         99.16284       43.31780       73.46449
C        100.51248       44.03152       73.28194
C        100.52381       44.86613       72.02815
N        100.69179       46.20860       72.09131
O        100.38532       44.32438       70.94169
H        100.34029       42.91747       76.39837
H         99.92865       41.66804       74.62536
H         98.35563       44.07987       73.51414
H         98.97645       42.66595       72.58287
H        101.33622       43.28708       73.22881
H        100.69517       44.68651       74.15634
H        100.80975       46.68764       72.99626
H        100.70096       46.77528       71.23037
N         97.62381       41.04024       76.13100
C         96.43332       40.23573       76.44858
C         96.59295       39.32515       77.69415
O         95.64762       38.59161       77.95693
C         95.14140       41.10929       76.66379
C         95.29946       42.08369       77.84084
C         94.64526       41.88017       75.43461
H         98.38294       41.12449       76.80716
H         96.26638       39.53191       75.60339
H         94.31179       40.40798       76.90613
H         95.53623       41.53373       78.77148
H         96.10964       42.81591       77.63798
H         94.35189       42.63764       78.01238
H         93.65209       42.32877       75.64979
H         95.31630       42.72327       75.17837
H         94.52242       41.19153       74.57124
N         97.69592       39.29156       78.50773
C         97.79142       38.47278       79.71480
C         98.90116       37.44604       79.56608
O         99.53842       37.39401       78.52091
C         98.04260       39.40300       80.92253
C         96.88182       40.34346       81.13284
N         97.03717       41.68011       80.99630
O         95.78602       39.88989       81.42821
H         98.52639       39.86042       78.32041
H         96.85417       37.90211       79.89710
H         98.98066       39.97484       80.74732
H         98.17404       38.82427       81.86011
H         97.94520       42.08058       80.72379
H         96.24070       42.31751       81.14513
N         99.17095       36.57369       80.57899
C        100.18277       35.52458       80.49744
C         99.53374       34.16611       80.72108
O         98.38645       34.11327       81.14811
C        101.27345       35.82968       81.54801
C        102.39452       34.82165       81.61087
C        102.63886       34.11990       82.80387
C        103.20952       34.57685       80.49246
C        103.67338       33.18533       82.87593
C        104.23963       33.63355       80.56445
C        104.47589       32.93607       81.75431
O        105.47518       32.03295       81.80939
H         98.62946       36.64840       81.45480
H        100.63987       35.51570       79.48444
H        100.78154       35.89910       82.54185
H        101.71370       36.82570       81.32355
H        102.03050       34.29532       83.68112
H        103.04137       35.10710       79.56372
H        103.84910       32.65615       83.80382
H        104.85519       33.44491       79.69409
H        105.67204       31.53342       82.61483
N        100.19944       33.01646       80.40593
C         99.63416       31.69141       80.59891
C        100.57715       30.84317       81.45025
O        101.46348       30.22367       80.87623
C         99.38844       30.99564       79.23992
C         98.37344       31.73948       78.36315
C         98.13866       30.98901       77.08228
O         98.38902       31.51119       76.00790
O         97.64452       29.73579       77.11334
H        101.13377       33.07431       79.97877
H         98.64317       31.75988       81.07137
H         98.99578       29.97293       79.44013
H        100.34685       30.90229       78.68161
H         98.75336       32.75910       78.13520
H         97.40552       31.83250       78.90094
N        100.50281       30.73305       82.81158
C         99.59021       31.46528       83.69111
C         98.13267       31.13359       83.42619
O         97.83575       30.17895       82.71984
C         99.88380       31.10714       85.17076
C        101.27621       31.53832       85.66467
C        101.55514       30.92803       87.01400
O        101.74064       31.68812       88.10997
O        101.62362       29.71362       87.12069
H        101.19127       30.10151       83.24982
H         99.74358       32.55443       83.52103
H         99.77780       30.00274       85.26584
H         99.13636       31.57645       85.84486
H        101.31816       32.64674       85.70775
H        102.07787       31.19261       84.98134
N         97.16325       31.92362       83.96864
C         95.74588       31.72095       83.75501
H         95.32135       32.61823       83.25666
H         95.53518       30.83537       83.12024
H         95.24357       31.58395       84.73479
H         97.44086       32.73218       84.54541
Ca       101.54883       33.92770       88.13167
O         98.45733       33.69514       87.58244
H         98.00300       32.82654       87.72152
H         98.33960       33.88592       86.61812
O        104.46684       34.61280       87.77760
H        104.49200       33.80730       87.20230
H        104.32319       35.36328       87.14803
O         99.97996       32.79160       90.56810
H        100.65489       32.55399       91.25254
H         99.11451       32.75540       91.04749
O        102.17118       35.63215       90.67241
H        103.12936       35.71042       90.43520
H        102.17201       35.29665       91.60398

Ca 1.0



