%chk=apoCaM-CA-Ng.loop4.water5.frame683.chk
%nprocshared=20
%mem=10GB
%nosave
#b3lyp/svp scf=(tight,noincore,xqc) Test 
#IOP(5/87=12) Density=Current Pop=(MK,readradii) iop(6/33=2) iop(6/42=6)

apoCaM-CA-Ng.loop4.water5.frame683 

   -3  1 
C         70.24511       60.13569       91.06726
C         69.39473       60.54416       92.23562
O         69.73370       61.50682       92.90759
H         71.26697       59.88219       91.41453
H         69.81951       59.25135       90.54560
H         70.30397       60.97296       90.34102
N         68.25131       59.86044       92.51971
C         67.32406       60.18944       93.59654
C         66.77656       61.59352       93.42730
O         66.75319       62.35738       94.38448
C         67.96038       59.98294       94.98931
C         68.49240       58.59436       95.15970
O         67.74987       57.62921       95.07631
O         69.79914       58.41353       95.41606
H         67.99254       59.06472       91.91591
H         66.45890       59.49400       93.51009
H         67.20162       60.16888       95.78053
H         68.79197       60.70516       95.13755
N         66.32574       62.00929       92.21000
C         65.75021       63.33674       92.01498
C         64.32521       63.35988       92.57097
O         63.78999       62.28591       92.81401
C         65.89282       63.82220       90.53218
C         65.29505       62.90422       89.42841
C         67.38545       64.04441       90.21985
C         63.78963       62.67819       89.51539
H         66.41464       61.36493       91.41367
H         66.35816       64.03526       92.61931
H         65.41048       64.81251       90.43491
H         65.80455       61.91924       89.39928
H         65.48524       63.39169       88.44684
H         67.51247       64.46273       89.19849
H         67.82756       64.77234       90.93420
H         67.95471       63.09254       90.28641
H         63.45979       62.09229       88.63164
H         63.52349       62.08479       90.40645
H         63.25050       63.64851       89.52418
N         63.62362       64.49626       92.86862
C         64.11739       65.87393       92.82156
C         65.31497       66.02066       93.73705
O         66.33217       66.55461       93.31555
C         63.01520       66.85593       93.27323
C         61.79702       66.76961       92.39360
O         61.88051       67.00123       91.19784
O         60.60566       66.43389       92.92468
H         62.66821       64.35252       93.23394
H         64.39374       66.16182       91.78763
H         63.40519       67.89655       93.22919
H         62.72299       66.63871       94.32418
N         65.29194       65.45743       94.97774
C         66.45722       65.39273       95.83624
C         66.77942       66.69883       96.50916
O         66.07495       67.68444       96.33783
H         64.45005       64.94425       95.27948
H         67.32995       65.02261       95.25370
H         66.26014       64.65978       96.64817
N         67.84706       66.73822       97.35184
C         68.21590       67.89586       98.15926
C         68.63412       69.13108       97.36004
O         68.90125       70.13893       98.00005
C         69.27298       67.48342       99.22332
C         70.52046       66.82850       98.68652
O         70.80183       65.55372       99.01996
O         71.29917       67.44280       97.98314
H         68.38010       65.86279       97.47342
H         67.31991       68.20260       98.74372
H         68.78548       66.74341       99.89515
H         69.55489       68.35789       99.84866
N         68.67225       69.18012       95.99099
C         69.02378       70.40365       95.27558
C         70.48112       70.78864       95.44357
O         70.85969       71.87037       95.01909
H         68.42049       68.35803       95.42739
H         68.36746       71.22448       95.63850
H         68.83786       70.27629       94.18719
N         71.36449       69.92242       96.00974
C         72.78536       70.15234       96.20527
C         73.49146       70.34849       94.88026
O         74.36348       71.19808       94.76474
C         73.05130       71.25055       97.25744
C         72.43379       70.86071       98.61226
C         72.67669       71.90909       99.66436
N         71.63799       72.52114      100.28107
O         73.82212       72.19925       99.97568
H         71.02989       68.99611       96.28334
H         73.21118       69.20650       96.61179
H         72.63139       72.21988       96.91296
H         74.14905       71.36972       97.39135
H         72.87440       69.90112       98.96041
H         71.34297       70.71029       98.48868
H         70.66392       72.28593      100.03950
H         71.80645       73.23141      101.00853
N         73.17433       69.52526       93.84102
C         73.91228       69.46798       92.58538
C         74.44789       68.05629       92.33083
O         75.20334       67.89908       91.38025
C         73.03708       69.95255       91.39303
C         71.75996       69.11362       91.20604
C         72.66804       71.43460       91.54866
H         72.37262       68.89119       93.95970
H         74.80196       70.13346       92.64372
H         73.64270       69.86438       90.46332
H         71.08404       69.20674       92.08207
H         71.20469       69.46282       90.30930
H         72.01041       68.04294       91.05572
H         72.09661       71.78236       90.66113
H         72.04841       71.59934       92.45493
H         73.58845       72.05191       91.62554
N         74.08110       66.97884       93.09516
C         74.52934       65.61257       92.84869
C         75.10148       65.02166       94.13455
O         74.89832       65.60429       95.19487
C         73.29810       64.83254       92.32664
C         73.56556       63.43978       91.81132
N         73.37349       63.14884       90.50211
O         73.92158       62.55801       92.57675
H         73.40453       67.09102       93.86073
H         75.31775       65.61266       92.06482
H         72.88143       65.42991       91.48561
H         72.51193       64.78812       93.11265
H         73.05811       63.87128       89.83756
H         73.54017       62.19628       90.14676
N         75.85869       63.88546       94.12754
C         76.36275       63.28887       95.36889
C         77.42303       62.21249       95.10059
O         77.67527       61.88745       93.94709
C         75.16086       62.67161       96.14351
C         75.39362       62.50920       97.62455
C         75.51986       61.23986       98.21210
C         75.44277       63.65150       98.44217
C         75.70687       61.11868       99.59385
C         75.61132       63.52777       99.82332
C         75.74777       62.26375      100.40451
O         75.91313       62.16299      101.73896
H         76.10074       63.47544       93.21373
H         76.84680       64.10484       95.95144
H         74.88996       61.70867       95.65654
H         74.25589       63.31051       96.06429
H         75.48512       60.34770       97.60275
H         75.32736       64.63858       98.01102
H         75.81381       60.13547      100.03412
H         75.63078       64.41623      100.44252
H         76.01065       61.30912      102.18367
N         78.08830       61.61091       96.12948
C         79.07064       60.54514       95.95112
C         78.62203       59.29005       96.70737
O         79.23884       58.95869       97.71157
C         80.46545       61.00850       96.42773
C         81.03697       62.13398       95.55704
C         82.44901       62.44577       95.96537
O         82.71483       62.88080       97.21170
O         83.36429       62.29752       95.17074
H         77.90296       61.92161       97.09384
H         79.20755       60.28452       94.88626
H         81.15828       60.14031       96.33949
H         80.42950       61.32403       97.49416
H         80.41381       63.04816       95.64808
H         81.03441       61.80767       94.49272
N         77.57411       58.50303       96.31297
C         76.77633       58.70194       95.10360
C         77.61721       58.51767       93.84727
O         78.76137       58.09107       93.93519
C         75.61786       57.67894       95.03766
C         74.61023       57.80749       96.18740
C         73.52907       56.77991       96.02299
O         72.25558       57.16725       95.83521
O         73.80318       55.59028       96.03385
H         77.35137       57.69447       96.91441
H         76.34838       59.72383       95.12126
H         76.04796       56.65160       95.03216
H         75.05160       57.81944       94.09093
H         74.16106       58.82391       96.16573
H         75.09631       57.65553       97.17317
N         77.08739       58.81584       92.62715
C         77.80991       58.66178       91.38098
H         78.83835       58.27127       91.53063
H         77.25990       57.95647       90.72368
H         77.87955       59.64677       90.87419
H         76.12472       59.18035       92.57084
Ca        70.64769       55.63679       95.40462
O         68.72838       53.34664       94.76449
H         67.82307       53.37605       95.16410
H         68.57764       53.06948       93.82606
O         71.94219       53.18356       96.61204
H         71.86465       53.95323       97.23045
H         71.13271       52.64229       96.78978
O         68.44461       56.05901       97.58510
H         68.73255       55.18490       97.95002
H         68.92544       56.72916       98.13300
O         71.38338       54.09921       92.72796
H         71.88406       54.50363       91.97559
H         70.68621       53.54665       92.29336
O         71.46579       57.37727       92.83124
H         71.89168       58.17930       93.22607
H         71.78922       57.35884       91.89577

Ca 1.0



