%chk=apoCaM-CA-Ng.loop1.water3.frame759.chk
%nprocshared=20
%mem=10GB
%nosave
#b3lyp/svp scf=(tight,noincore,xqc) Test 
#IOP(5/87=12) Density=Current Pop=(MK,readradii) iop(6/33=2) iop(6/42=6)

apoCaM-CA-Ng.loop1.water3.frame759 

   0  1 
C         52.35990       31.46315       17.36610
C         52.83887       32.87591       17.20138
O         52.15896       33.66848       16.56544
H         51.39007       31.30882       16.84707
H         53.10948       30.75763       16.95205
H         52.21872       31.24876       18.44742
N         54.00757       33.26180       17.78413
C         54.51994       34.62864       17.74841
C         55.91577       34.69202       17.13384
O         56.83893       34.09326       17.66427
C         54.50132       35.25021       19.16666
C         55.31538       34.54424       20.23252
O         55.93130       33.36701       19.99127
O         55.45897       35.08394       21.31709
H         54.53199       32.54503       18.30335
H         53.85124       35.26812       17.13142
H         53.45141       35.32123       19.52335
H         54.89434       36.28691       19.06752
N         56.14681       35.40850       15.99643
C         57.47558       35.51306       15.40135
C         58.38127       36.39666       16.24394
O         58.01208       37.52534       16.53590
C         57.39359       36.02894       13.95153
C         58.75784       35.88877       13.24427
C         58.61519       35.95252       11.72004
C         59.94603       35.61356       11.02702
N         59.72615       35.26564        9.62348
H         55.35038       35.85922       15.52014
H         57.89038       34.48255       15.31897
H         57.01351       37.07253       13.89009
H         56.66876       35.36493       13.43105
H         59.15350       34.87333       13.46901
H         59.48704       36.63654       13.62655
H         58.23577       36.94116       11.37846
H         57.87438       35.17471       11.43559
H         60.41439       34.73173       11.51862
H         60.65090       36.47043       11.11689
H         59.25798       36.04786        9.11351
H         60.64477       35.04935        9.17388
H         59.12970       34.40585        9.57172
N         59.61209       35.95306       16.62392
C         60.55380       36.74426       17.42017
C         61.93180       36.09695       17.44203
O         62.01477       34.88114       17.54432
C         60.04280       37.01818       18.84996
C         59.30727       35.86229       19.46280
O         58.13102       36.01645       19.75191
O         59.86523       34.65426       19.66879
H         59.90309       35.02021       16.29517
H         60.67561       37.72026       16.91322
H         59.31554       37.85664       18.79101
H         60.87394       37.36213       19.50354
N         63.08306       36.82218       17.29367
C         63.18818       38.27844       17.33523
C         63.44366       38.88050       15.97727
O         63.35375       38.18140       14.98046
H         63.97262       36.30554       17.21464
H         64.02795       38.53085       18.01701
H         62.29501       38.76487       17.77241
N         63.72347       40.21273       15.86718
C         63.95417       40.87669       14.58406
C         65.25052       40.45692       13.89375
O         65.41198       40.81231       12.73414
C         63.92365       42.41380       14.74326
C         64.99720       42.94089       15.66110
O         64.65455       43.60189       16.78295
O         66.17791       42.78845       15.39064
H         63.72099       40.77752       16.73049
H         63.10488       40.60583       13.91641
H         62.93026       42.70274       15.14945
H         64.03179       42.89828       13.74788
N         66.21467       39.71510       14.51798
C         67.41645       39.25622       13.83098
C         67.24919       37.84224       13.30618
O         68.15204       37.35422       12.64084
H         66.07504       39.40016       15.48837
H         68.28988       39.33240       14.51424
H         67.63667       39.91005       12.95931
N         66.10001       37.14398       13.52926
C         65.78076       35.83488       12.98643
C         65.51069       34.90010       14.14554
O         64.64293       35.20873       14.95285
C         64.51479       35.94695       12.10156
C         64.63828       37.02941       11.01950
O         64.21076       34.70497       11.51953
H         65.37112       37.57013       14.10025
H         66.62312       35.45700       12.36495
H         63.65394       36.24516       12.74138
H         64.96557       34.46649       10.91929
H         63.70028       37.07164       10.42696
H         64.78727       38.02875       11.48364
H         65.49164       36.81759       10.34275
N         66.24851       33.77267       14.33128
C         66.14993       32.96107       15.54096
C         67.37377       33.20970       16.41457
O         67.37221       32.77370       17.55498
C         65.91780       31.46155       15.17537
C         64.62709       31.26592       14.33422
C         65.89603       30.52909       16.40414
C         63.32390       31.65507       15.04491
H         66.97155       33.53177       13.63384
H         65.30304       33.30805       16.16958
H         66.76949       31.12807       14.54072
H         64.55351       30.19529       14.04199
H         64.70400       31.85647       13.39653
H         65.12209       30.83886       17.13628
H         65.69949       29.48235       16.08911
H         66.88003       30.51519       16.91367
H         63.17192       31.05602       15.96581
H         63.30946       32.73296       15.30183
H         62.46613       31.45886       14.36874
N         68.43241       33.95409       15.97148
C         69.57003       34.28947       16.80976
C         70.80683       33.58857       16.29556
O         70.74033       32.86712       15.31087
C         69.72792       35.83568       16.89835
C         70.15505       36.49278       15.57917
O         68.51831       36.41488       17.31534
H         68.46079       34.30448       15.00801
H         69.41205       33.92060       17.84556
H         70.52130       36.09071       17.63632
H         68.37844       36.14433       18.26001
H         69.40815       36.32585       14.77955
H         70.25893       37.58910       15.72729
H         71.13878       36.09977       15.24549
N         71.98459       33.76402       16.94531
C         73.22223       33.11476       16.55601
C         73.77118       32.36376       17.75286
O         73.95620       31.15663       17.66692
C         74.19118       34.18258       15.98787
C         75.54619       33.59645       15.59085
O         74.38904       35.22842       16.90596
H         72.00696       34.40263       17.75174
H         73.04991       32.38026       15.73683
H         73.70392       34.57920       15.06306
H         74.34008       36.08244       16.40160
H         75.41345       32.77830       14.85240
H         76.17243       34.39129       15.13300
H         76.07724       33.20232       16.48317
N         74.07322       33.03161       18.89852
C         74.69919       32.43019       20.06036
C         73.85582       32.73120       21.28724
O         73.56879       33.89601       21.53450
C         76.10910       33.03509       20.14880
C         77.01781       32.39729       21.20344
C         78.41370       33.02982       21.09646
C         79.41524       32.40865       22.07233
N         80.72553       33.04614       21.93233
H         73.91512       34.04883       18.93877
H         74.81440       31.33082       19.92954
H         76.03938       34.13305       20.31641
H         76.59304       32.86987       19.15895
H         77.09364       31.30457       21.00817
H         76.59912       32.55437       22.22092
H         78.33477       34.12094       21.29673
H         78.80111       32.88703       20.06249
H         79.51208       31.32023       21.86112
H         79.05079       32.53775       23.11484
H         81.08619       32.92103       20.95795
H         80.65287       34.06725       22.14836
H         81.39784       32.60561       22.60022
N         73.43729       31.73583       22.11815
C         72.64094       32.00345       23.31327
C         71.19842       32.36737       22.96484
O         70.81089       33.47627       23.30468
C         72.73773       30.85319       24.34254
C         74.17630       30.73574       24.88238
C         74.34805       29.62280       25.87812
O         73.32264       28.81240       26.20649
O         75.43996       29.44545       26.39368
H         73.75392       30.77237       21.92901
H         73.08385       32.88176       23.83901
H         72.42195       29.88532       23.90979
H         72.06809       31.07930       25.20228
H         74.44976       31.69303       25.37961
H         74.88410       30.56001       24.04515
N         70.30848       31.54870       22.32477
C         70.56491       30.21740       21.81673
H         71.60916       29.89387       21.92963
H         69.90271       29.49336       22.33814
H         70.33029       30.19194       20.73244
H         69.34979       31.90407       22.18050
Ca        58.17586       33.24972       20.16452
O         58.18218       33.67157       23.01446
H         58.12577       32.73806       23.33818
H         57.26288       33.88033       22.71427
O         60.54929       31.23977       20.00554
H         61.27966       31.45823       19.37391
H         60.97181       31.28881       20.89955
O         59.57926       32.33196       17.08666
H         59.38159       32.48062       16.12810
H         60.53802       32.56065       17.17891

Ca 1.0



