%chk=apoCaM-CA-Ng.loop3.water4.frame94.chk
%nprocshared=20
%mem=10GB
%nosave
#b3lyp/svp scf=(tight,noincore,xqc) Test 
#IOP(5/87=12) Density=Current Pop=(MK,readradii) iop(6/33=2) iop(6/42=6)

apoCaM-CA-Ng.loop3.water4.frame94 

   0  1 
C         27.28597       62.16053       91.99480
C         26.84563       63.59005       91.89159
O         26.00872       63.89243       91.05328
H         28.37834       62.09040       91.81341
H         27.05594       61.77304       93.00961
H         26.75771       61.53076       91.24619
N         27.37539       64.53218       92.72746
C         26.98782       65.94176       92.72811
C         27.35838       66.65236       91.41965
O         26.89006       67.76007       91.20021
C         25.48504       66.06357       93.09282
C         25.06952       67.48127       93.37625
O         24.18368       68.00606       92.72076
O         25.66295       68.17355       94.36787
H         28.07779       64.23051       93.42043
H         27.55070       66.45201       93.54141
H         25.29473       65.47978       94.01982
H         24.84852       65.64458       92.28606
N         28.24967       66.10841       90.53613
C         28.62312       66.73574       89.26760
C         28.32696       65.83922       88.07373
O         28.50587       66.30120       86.95392
C         30.12446       67.09721       89.29209
C         30.46128       68.25240       90.25330
C         29.93883       69.60065       89.72189
C         30.33809       70.76977       90.62735
N         29.89424       72.04024       90.05129
H         28.71729       65.22347       90.77886
H         28.01938       67.64697       89.08887
H         30.47688       67.39552       88.28011
H         30.69442       66.18773       89.58501
H         31.56894       68.32491       90.31752
H         30.06981       68.04032       91.27191
H         28.83376       69.59315       89.63672
H         30.37185       69.77223       88.71142
H         31.44406       70.79228       90.74549
H         29.87672       70.63445       91.63061
H         30.35315       72.19166       89.12301
H         28.85510       72.04155       89.93125
H         30.16360       72.82218       90.69039
N         27.86240       64.56520       88.20964
C         27.50610       63.72956       87.07171
C         26.32011       64.36087       86.35572
O         25.35641       64.72492       87.01611
C         27.19017       62.30110       87.56284
C         27.04452       61.31848       86.43318
O         26.16304       61.44956       85.60421
O         27.89485       60.27886       86.33378
H         27.74510       64.16358       89.14767
H         28.38607       63.64232       86.39436
H         26.28315       62.30405       88.19929
H         28.04246       61.95316       88.18731
N         26.32702       64.52373       85.00409
C         25.26243       65.18151       84.25817
C         23.89142       64.59796       84.52941
O         22.99396       65.35415       84.87356
H         27.13052       64.16291       84.46738
H         25.48419       65.09443       83.17361
H         25.25208       66.26483       84.50988
N         23.66334       63.25971       84.42691
C         22.36279       62.64175       84.68436
C         22.34081       61.85020       85.98964
O         21.34230       61.19165       86.25088
C         21.95069       61.72961       83.50863
C         22.93816       60.56903       83.28884
N         22.25167       59.35695       82.86214
O         23.87612       60.94297       82.32044
H         24.45988       62.65014       84.19589
H         21.56927       63.41436       84.78551
H         21.82432       62.30846       82.56716
H         20.94653       61.32105       83.75697
H         21.62847       59.05364       83.64654
H         22.96936       58.60405       82.76027
N         23.36894       61.88790       86.88300
C         23.37324       61.10395       88.10789
C         23.55187       59.63335       87.81769
O         23.64034       59.25163       86.65945
H         24.17083       62.50436       86.71330
H         22.44515       61.29255       88.68926
H         24.23552       61.41393       88.73285
N         23.64528       58.73967       88.84242
C         23.90852       57.31802       88.62050
C         25.29970       57.12591       87.99065
O         26.03617       58.09077       87.83804
C         23.71042       56.54559       89.95477
C         23.85926       55.04484       89.83936
C         23.03799       54.29765       88.97098
C         24.84447       54.37885       90.58719
C         23.22654       52.91782       88.83386
C         25.02299       52.99957       90.45516
C         24.21995       52.26531       89.57151
O         24.39562       50.93676       89.42234
H         23.52755       59.08869       89.80665
H         23.14711       56.94487       87.90071
H         22.68245       56.74909       90.32767
H         24.42689       56.94761       90.70374
H         22.27187       54.78355       88.38050
H         25.48417       54.92817       91.26607
H         22.60571       52.35606       88.14674
H         25.79228       52.50498       91.03446
H         25.07721       50.45051       89.90835
N         25.69096       55.89912       87.54605
C         26.90361       55.62589       86.78348
C         26.46341       55.03929       85.44703
O         26.83467       55.58388       84.41689
C         27.86430       54.67652       87.55887
C         28.25669       55.31751       88.91814
C         29.13165       54.40370       86.71575
C         29.16355       54.44112       89.78676
H         25.06618       55.10832       87.69636
H         27.47048       56.56610       86.59195
H         27.34292       53.71221       87.74933
H         27.33725       55.51600       89.50669
H         28.76825       56.28986       88.74208
H         29.69763       55.34376       86.54119
H         29.79583       53.66647       87.20848
H         28.88185       53.97621       85.72965
H         28.67459       53.46681       89.99615
H         30.14778       54.26732       89.30642
H         29.35882       54.95718       90.75048
N         25.61231       53.96634       85.38741
C         25.09488       53.44673       84.12443
C         26.16324       52.71216       83.33604
O         25.96120       52.47226       82.15493
C         23.90385       52.50789       84.36333
O         22.89482       53.19529       85.05155
H         25.27302       53.54189       86.26278
H         24.72601       54.31311       83.52901
H         24.24252       51.63300       84.96404
H         23.50684       52.16046       83.38317
H         22.18127       52.52999       85.23248
N         27.32481       52.32032       83.93385
C         28.44161       51.68390       83.25537
C         28.98352       52.58440       82.16187
O         29.28618       52.10587       81.07487
C         28.06713       50.27828       82.76197
H         27.45369       52.49456       84.93790
H         29.25325       51.56599       84.00797
H         27.70401       49.66535       83.61408
H         27.26946       50.31989       81.99148
H         28.95440       49.77505       82.32294
N         29.09508       53.92628       82.37809
C         29.62487       54.85410       81.39126
C         30.60266       55.81912       82.03006
O         30.68769       55.88432       83.25110
C         28.47576       55.62568       80.74091
H         28.74608       54.31385       83.26742
H         30.15757       54.29080       80.59328
H         28.85954       56.32371       79.96722
H         27.77827       54.91270       80.25150
H         27.91145       56.20224       81.50256
N         31.40650       56.58596       81.24249
C         32.38479       57.54497       81.74301
C         33.28401       56.89290       82.78461
O         33.39669       57.39507       83.89571
C         31.69089       58.81613       82.28822
C         30.78163       59.47960       81.24180
C         30.18620       60.75137       81.77515
O         30.90869       61.68132       82.09749
O         28.85071       60.87857       81.88621
H         31.35775       56.45301       80.21972
H         33.01876       57.86350       80.88563
H         32.48139       59.53993       82.58852
H         31.08546       58.56835       83.18541
H         29.96100       58.78064       80.96937
H         31.36299       59.71715       80.32508
N         33.92073       55.72534       82.50106
C         34.71838       55.03431       83.49092
H         35.56924       55.67252       83.80865
H         34.09047       54.78938       84.37577
H         35.11222       54.08682       83.06751
H         33.80814       55.29637       81.57039
Ca        25.91004       60.20336       83.01617
O         28.32342       58.47095       83.76341
H         28.97554       57.86341       84.19275
H         27.77747       57.88176       83.18587
O         26.63266       59.27830       80.17256
H         25.79803       58.78680       80.37870
H         27.33500       58.58074       80.15954
O         25.22229       57.82764       84.93274
H         25.06139       57.84720       83.95763
H         25.76297       58.63478       85.12245
O         26.42924       62.84905       81.89357
H         25.61052       63.14110       81.41965
H         27.08427       63.57401       81.73623

Ca 1.0



