%chk=apoCaM-CA-Ng.loop3.water3.frame624.chk
%nprocshared=20
%mem=10GB
%nosave
#b3lyp/svp scf=(tight,noincore,xqc) Test 
#IOP(5/87=12) Density=Current Pop=(MK,readradii) iop(6/33=2) iop(6/42=6)

apoCaM-CA-Ng.loop3.water3.frame624 

   0  1 
C         87.24628       31.50156      -25.54527
C         87.92012       31.28417      -26.86723
O         87.37448       31.70014      -27.87973
H         86.25041       31.01280      -25.54639
H         87.84876       31.08739      -24.70994
H         87.11702       32.59200      -25.37636
N         89.13197       30.66356      -26.93581
C         89.85464       30.50888      -28.18985
C         89.09439       29.57704      -29.12790
O         88.87425       28.42416      -28.78294
C         91.28287       29.98307      -27.92810
C         92.18733       30.14195      -29.11800
O         93.32795       29.71216      -29.07063
O         91.76313       30.75906      -30.23577
H         89.57596       30.34746      -26.05979
H         89.95175       31.52433      -28.63138
H         91.23114       28.91673      -27.61872
H         91.75575       30.54293      -27.10123
N         88.63745       30.03472      -30.32412
C         87.83360       29.24171      -31.25307
C         88.58486       28.01052      -31.76466
O         87.98465       26.94551      -31.79434
C         87.30924       30.17109      -32.37375
C         86.30206       29.52432      -33.33997
C         85.55681       30.57917      -34.19218
C         86.44097       31.48863      -35.06677
N         87.15150       30.74275      -36.10362
H         88.83432       31.01901      -30.56467
H         86.92164       28.89217      -30.71710
H         88.15106       30.59303      -32.94835
H         86.77929       31.00496      -31.85902
H         85.52274       28.99533      -32.74888
H         86.81331       28.77439      -33.97911
H         84.98587       31.23780      -33.50039
H         84.81614       30.06338      -34.84124
H         87.16398       32.05303      -34.43950
H         85.78236       32.24009      -35.55785
H         86.46565       30.25006      -36.72078
H         87.70216       31.41565      -36.68478
H         87.81049       30.05475      -35.67590
N         89.89847       28.06594      -32.14186
C         90.65532       26.90456      -32.63603
C         91.80735       26.48686      -31.71275
O         92.48911       25.52623      -32.04552
C         91.11915       27.15911      -34.09275
C         91.87246       28.44700      -34.25783
O         91.38896       29.35342      -34.91580
O         93.02073       28.65364      -33.60061
H         90.38784       28.96976      -32.06728
H         90.00277       26.00527      -32.68066
H         90.20533       27.21609      -34.72295
H         91.73198       26.30894      -34.46244
N         92.04099       27.08713      -30.50949
C         93.03184       26.60780      -29.54982
C         94.48829       26.79196      -29.94183
O         95.32837       26.41197      -29.13911
H         91.42862       27.85371      -30.20575
H         92.84301       25.53285      -29.33725
H         92.89320       27.15725      -28.59359
N         94.87863       27.36613      -31.11820
C         96.28080       27.57330      -31.47841
C         96.57722       29.04952      -31.69314
O         95.66593       29.86223      -31.71246
C         96.63514       26.73427      -32.72892
C         95.88740       27.16179      -33.97340
N         95.02391       26.32304      -34.59110
O         96.07535       28.27598      -34.43751
H         94.16632       27.67383      -31.78285
H         96.93859       27.22670      -30.65217
H         96.41381       25.66922      -32.49905
H         97.72405       26.80492      -32.94051
H         94.84694       25.37742      -34.22404
H         94.52381       26.62549      -35.44075
N         97.86465       29.46018      -31.85277
C         98.25747       30.83166      -32.12882
C         97.74263       31.82322      -31.10666
O         97.84068       31.57545      -29.91328
H         98.61821       28.76001      -31.78172
H         97.91218       31.11997      -33.14576
H         99.36758       30.87782      -32.13263
N         97.24620       33.02057      -31.53144
C         96.80514       34.08696      -30.63402
C         95.41177       33.81860      -30.08520
O         94.81536       32.80315      -30.41506
C         96.89849       35.45909      -31.35888
C         95.96815       35.62077      -32.53971
C         94.63239       36.01595      -32.35141
C         96.43953       35.40847      -33.84595
C         93.78366       36.18398      -33.44852
C         95.58589       35.56312      -34.94036
C         94.25390       35.95307      -34.74510
O         93.42003       36.10843      -35.79271
H         97.28609       33.21306      -32.54204
H         97.52386       34.15807      -29.78658
H         97.95003       35.57327      -31.70298
H         96.73590       36.30797      -30.66038
H         94.24839       36.21028      -31.36012
H         97.46644       35.11094      -34.01758
H         92.75776       36.49074      -33.29036
H         95.96273       35.38110      -35.93862
H         93.70609       35.95102      -36.70387
N         94.83293       34.72904      -29.24901
C         93.48651       34.66045      -28.68547
C         92.41094       34.66524      -29.77266
O         92.34967       33.73384      -30.56122
C         93.29851       33.45226      -27.71639
C         91.90178       33.46316      -27.02750
C         94.41176       33.38061      -26.65924
C         91.56634       34.71283      -26.20627
H         95.38468       35.56107      -28.99158
H         93.36903       35.57841      -28.07339
H         93.36754       32.51070      -28.30007
H         91.82496       32.59504      -26.34359
H         91.12019       33.34665      -27.79986
H         94.43819       34.29410      -26.03248
H         94.25193       32.49601      -26.00416
H         95.40154       33.25524      -27.14540
H         91.52885       35.61959      -26.84017
H         90.55934       34.59008      -25.75452
H         92.29699       34.86322      -25.38695
N         91.46933       35.65506      -29.80661
C         90.30037       35.61882      -30.68441
C         90.08386       36.90217      -31.47352
O         89.06962       36.96695      -32.15850
C         89.05448       35.40919      -29.80469
O         89.16374       34.21478      -29.08528
H         91.51833       36.41011      -29.10678
H         90.36086       34.77123      -31.40260
H         88.14197       35.35595      -30.43903
H         88.96507       36.27343      -29.10413
H         88.49226       34.26934      -28.35637
N         90.93116       37.97215      -31.42334
C         90.57016       39.26804      -31.99734
C         91.37941       39.59589      -33.23715
O         92.53334       39.19608      -33.30487
C         90.73564       40.36007      -30.94400
H         91.82820       37.89675      -30.91974
H         89.49970       39.25385      -32.27262
H         91.79546       40.43349      -30.61958
H         90.42286       41.33686      -31.36235
H         90.10121       40.13336      -30.06099
N         90.85652       40.28520      -34.30016
C         89.50276       40.84603      -34.35994
C         89.47511       42.16269      -35.13231
O         90.22870       42.29523      -36.08545
C         88.57012       39.84498      -35.04825
H         91.45054       40.37222      -35.13956
H         89.11100       41.02988      -33.34493
H         87.53232       40.23914      -35.08659
H         88.90970       39.63916      -36.08495
H         88.55066       38.88948      -34.48311
N         88.56349       43.15456      -34.88337
C         87.57242       43.12582      -33.81017
C         88.18491       43.46285      -32.45616
O         87.47952       43.35552      -31.46259
C         86.42846       44.12806      -34.09176
C         85.64683       43.77571      -35.36748
C         84.52013       44.74337      -35.59059
O         83.24709       44.30404      -35.60908
O         84.75143       45.92949      -35.76430
H         88.55882       43.96150      -35.52798
H         87.11022       42.11695      -33.76366
H         86.84615       45.15684      -34.17129
H         85.70943       44.10854      -33.24212
H         85.22909       42.75027      -35.26496
H         86.31236       43.79596      -36.25576
N         89.46640       43.91378      -32.32862
C         90.01883       44.28542      -31.04314
H         91.06103       44.64783      -31.16918
H         89.41304       45.10028      -30.59206
H         90.02254       43.41332      -30.35777
H         90.06693       44.03105      -33.15614
Ca        92.87342       30.31919      -32.12086
O         94.61584       31.15066      -34.56989
H         95.57004       30.89386      -34.52054
H         94.20084       30.46375      -35.14960
O         90.49834       31.55788      -33.26814
H         89.94041       31.59987      -34.08491
H         90.00948       32.09486      -32.59576
O         92.72691       33.30470      -33.71047
H         92.80265       33.27011      -34.69705
H         91.96859       33.91910      -33.54308

Ca 1.0



