%chk=apoCaM-CA-Ng.loop2.water4.frame653.chk
%nprocshared=20
%mem=10GB
%nosave
#b3lyp/svp scf=(tight,noincore,xqc) Test 
#IOP(5/87=12) Density=Current Pop=(MK,readradii) iop(6/33=2) iop(6/42=6)

apoCaM-CA-Ng.loop2.water4.frame653 

   -2  1 
C        -22.50752       43.73948       96.63447
C        -23.65860       43.11001       97.37221
O        -24.25528       42.17512       96.85846
H        -21.70176       42.99700       96.46538
H        -22.86523       44.12078       95.65373
H        -22.08502       44.60015       97.19694
N        -24.05164       43.60740       98.57617
C        -25.23547       43.14850       99.29366
C        -25.13223       41.70891       99.77605
O        -24.20786       41.38115      100.50547
C        -25.49120       44.05834      100.51380
C        -26.77107       43.69658      101.21977
O        -26.74520       43.30631      102.50812
O        -27.83718       43.75095      100.62701
H        -23.52347       44.40477       98.96471
H        -26.11117       43.26388       98.61665
H        -25.56866       45.11435      100.17716
H        -24.63759       43.98141      101.22357
N        -26.15118       40.84132       99.51400
C        -26.28090       39.53169      100.15159
C        -25.21630       38.54347       99.69377
O        -24.57969       38.79145       98.68050
C        -27.69305       38.98679       99.85486
H        -26.93338       41.18278       98.93435
H        -26.17712       39.68871      101.24780
H        -27.90964       37.99487      100.28680
H        -28.44567       39.69405      100.26537
H        -27.84573       38.89902       98.75941
N        -24.93864       37.38984      100.38090
C        -25.53158       37.03260      101.67108
C        -24.80489       37.68231      102.83116
O        -23.72659       38.23339      102.64534
C        -25.65526       35.49360      101.83190
C        -24.35991       34.71515      101.84141
O        -23.27728       35.26853      101.73884
O        -24.40312       33.37481      101.96762
H        -24.19697       36.78255       99.99981
H        -26.55682       37.41616      101.73094
H        -26.28048       35.10601      100.99943
H        -26.18503       35.26755      102.78204
N        -25.35326       37.62923      104.07803
C        -24.68172       38.09606      105.27543
C        -25.54838       38.97211      106.16939
O        -26.65291       39.32963      105.77895
H        -26.26284       37.15700      104.19995
H        -23.73097       38.61138      105.03243
H        -24.44932       37.18183      105.85171
N        -25.14524       39.31306      107.43421
C        -23.85378       38.89302      107.98788
C        -22.70676       39.61797      107.29038
O        -22.96439       40.50224      106.48570
C        -23.79966       39.03174      109.52858
C        -23.71198       40.44362      110.05236
N        -22.64256       40.82862      110.79080
O        -24.61359       41.23755      109.83227
H        -25.80509       39.83299      108.03389
H        -23.75806       37.80185      107.81739
H        -22.91055       38.46904      109.88578
H        -24.68726       38.52877      109.97183
H        -21.87452       40.17118      110.99538
H        -22.57884       41.78545      111.16719
N        -21.40748       39.30120      107.56560
C        -20.28221       39.96896      106.92145
C        -19.22920       39.02721      106.35110
O        -18.24657       39.54265      105.83517
H        -21.21143       38.60125      108.29367
H        -19.77605       40.59013      107.68988
H        -20.62413       40.65266      106.11396
N        -19.30421       37.66505      106.44804
C        -18.20223       36.78724      106.03914
C        -17.92411       36.82174      104.54923
O        -18.82289       36.65242      103.74190
C        -18.39264       35.32262      106.48133
C        -18.28454       35.18186      108.00042
O        -19.61899       34.81869      106.02451
H        -20.12800       37.23679      106.89261
H        -17.28279       37.12868      106.56516
H        -17.54726       34.73624      106.04349
H        -19.51029       33.83646      105.93213
H        -18.35449       34.11059      108.28019
H        -17.29350       35.55808      108.33983
H        -19.08232       35.75259      108.51652
N        -16.64170       36.99706      104.13555
C        -16.21993       37.05174      102.74333
C        -16.33259       35.66991      102.09316
O        -15.66104       34.74893      102.53491
C        -14.75027       37.58579      102.67669
C        -14.22109       37.63740      101.21971
C        -14.67028       38.99047      103.32840
C        -12.73905       38.01411      101.12970
H        -15.92204       37.10332      104.86519
H        -16.85695       37.78906      102.20979
H        -14.10521       36.88694      103.25664
H        -14.82362       38.35427      100.62088
H        -14.31405       36.63329      100.75633
H        -15.02966       38.99602      104.37624
H        -13.62799       39.35715      103.38262
H        -15.28634       39.71713      102.75762
H        -12.12535       37.28999      101.70772
H        -12.41345       37.98697      100.06955
H        -12.54786       39.03791      101.50735
N        -17.12085       35.48479      100.99397
C        -17.18386       34.25839      100.20491
C        -16.63202       34.48166       98.79368
O        -16.56014       33.50768       98.05402
C        -18.63647       33.77166      100.10372
C        -19.26330       33.50331      101.44055
O        -18.87543       32.58023      102.13809
O        -20.26960       34.28672      101.86436
H        -17.68654       36.26484      100.66539
H        -16.56402       33.46525      100.67654
H        -18.69701       32.83814       99.50230
H        -19.22733       34.54857       99.57194
N        -16.17143       35.69897       98.36435
C        -15.45122       35.88813       97.10942
C        -16.05175       37.03294       96.28595
O        -15.31366       37.95198       95.95195
C        -13.98257       36.13689       97.54367
C        -12.86467       36.05484       96.53402
C        -11.55438       36.08102       97.04680
C        -13.05218       35.91188       95.14733
C        -10.45389       35.94753       96.20148
C        -11.94206       35.79189       94.30055
C        -10.64652       35.80181       94.82796
H        -16.20167       36.51030       98.99190
H        -15.48243       34.95660       96.50384
H        -13.74965       35.33018       98.27408
H        -13.91621       37.10640       98.08897
H        -11.38687       36.18163       98.11357
H        -14.04147       35.88736       94.71366
H         -9.45348       35.94882       96.61593
H        -12.08439       35.68042       93.23409
H         -9.79055       35.69320       94.17489
N        -17.36658       37.07377       95.89261
C        -17.94825       38.14770       95.08898
C        -17.79491       39.54702       95.67701
O        -17.94270       40.51087       94.94146
C        -19.43643       37.78565       95.01609
C        -19.38836       36.27441       95.06041
C        -18.33318       36.02348       96.13815
H        -17.45407       38.10207       94.09211
H        -19.94170       38.10558       95.95767
H        -19.98214       38.22958       94.15560
H        -20.36229       35.77128       95.23992
H        -18.98180       35.92890       94.08190
H        -18.74558       36.15475       97.16283
H        -17.92044       35.00286       95.99937
N        -17.52741       39.72962       97.00248
C        -17.28773       41.04203       97.59723
C        -16.00284       41.59250       97.02796
O        -15.99051       42.70756       96.52506
C        -17.18453       41.02216       99.14597
C        -18.46719       40.51768       99.83392
C        -18.56547       39.03158       99.95680
O        -19.71683       38.50247      100.40699
O        -17.58727       38.33113       99.78682
H        -17.47269       38.89916       97.58923
H        -18.14205       41.71680       97.36095
H        -17.06906       42.08726       99.44792
H        -16.28892       40.48200       99.52567
H        -19.35702       40.92025       99.30661
H        -18.49592       40.88636      100.88111
N        -14.89173       40.80491       97.01353
C        -13.65177       41.17789       96.37416
H        -12.80046       40.82202       96.99030
H        -13.59627       40.67792       95.38293
H        -13.56911       42.27528       96.23743
H        -14.96032       39.84613       97.38280
Ca       -20.15823       36.43277      101.18359
O        -22.20185       39.35070      100.39150
H        -21.87514       39.37841       99.45704
H        -21.88788       40.20214      100.78675
O        -21.77970       36.60912       98.56397
H        -21.38476       35.73945       98.30408
H        -21.16849       37.28443       98.17617
O        -21.81662       36.33974      104.02295
H        -21.09506       35.68933      104.20208
H        -22.13841       36.60143      104.92050
O        -20.18037       39.73195      103.10244
H        -19.60391       40.52196      103.25331
H        -19.54760       39.02024      102.83630

Ca 1.0



