%chk=apoCaM-CA-Ng.loop3.water6.frame418.chk
%nprocshared=20
%mem=10GB
%nosave
#b3lyp/svp scf=(tight,noincore,xqc) Test 
#IOP(5/87=12) Density=Current Pop=(MK,readradii) iop(6/33=2) iop(6/42=6)

apoCaM-CA-Ng.loop3.water6.frame418 

   0  1 
C         98.81460       65.78535       93.71928
C         98.38597       64.36385       93.92670
O         98.74045       63.77804       94.94064
H         99.42989       65.85359       92.79822
H         97.92251       66.43785       93.61413
H         99.41898       66.14423       94.58015
N         97.59725       63.74793       93.00174
C         97.14082       62.37058       93.12686
C         95.64619       62.37513       93.35369
O         94.90653       62.87305       92.51353
C         97.53048       61.57100       91.87026
C         97.16035       60.10884       91.93806
O         97.42399       59.38169       90.99456
O         96.55291       59.58463       93.02163
H         97.28505       64.29172       92.18117
H         97.63554       61.88362       93.99628
H         98.63180       61.63804       91.73660
H         97.04228       62.02419       90.97981
N         95.14501       61.86092       94.50996
C         93.73722       61.90886       94.88423
C         93.59919       62.77742       96.11534
O         94.61877       63.14317       96.69358
C         93.20545       60.47243       95.12919
C         93.78428       59.83241       96.41403
C         93.58167       58.31673       96.52589
C         92.12118       57.85420       96.52127
N         92.05499       56.40411       96.71678
H         95.81335       61.46510       95.18746
H         93.14960       62.37018       94.05933
H         93.47304       59.86385       94.23784
H         92.09699       60.48404       95.21641
H         93.34709       60.34066       97.30220
H         94.88089       59.97495       96.45107
H         94.05128       57.99410       97.48146
H         94.12217       57.82055       95.69077
H         91.64844       58.11424       95.54914
H         91.56070       58.36001       97.33782
H         92.45631       56.15037       97.64949
H         91.05841       56.09185       96.68282
H         92.59050       55.91184       95.96443
N         92.38394       63.17883       96.57079
C         92.25511       63.99538       97.77031
C         91.19549       63.42289       98.70352
O         90.36269       62.63473       98.27186
C         92.03876       65.45927       97.34150
C         92.05418       66.42440       98.48964
O         91.15598       66.41660       99.30606
O         93.02505       67.34084       98.62003
H         91.54041       62.94826       96.01975
H         93.21349       63.97854       98.33497
H         91.09707       65.55872       96.76328
H         92.87547       65.73714       96.66259
N         91.20849       63.74049      100.02734
C         90.25006       63.23663      100.99686
C         88.84437       63.71018      100.69807
O         87.94518       62.89036      100.59038
H         91.95776       64.35496      100.38260
H         90.53218       63.62111      101.99983
H         90.29746       62.12629      101.03540
N         88.59750       65.03859      100.53504
C         87.29031       65.62081      100.25665
C         87.18290       66.08757       98.80220
O         86.22024       66.76639       98.47138
C         87.05539       66.79573      101.23432
C         87.05407       66.36231      102.68062
N         86.14131       65.47323      103.13555
O         87.87144       66.83533      103.45549
H         89.38912       65.68597      100.59225
H         86.47884       64.87564      100.39525
H         86.07231       67.26506      101.02891
H         87.84510       67.56369      101.07395
H         85.43167       65.07504      102.50449
H         86.13805       65.18823      104.12617
N         88.08106       65.68641       97.85616
C         88.00000       66.04353       96.44682
C         88.29912       67.50400       96.22213
O         87.54922       68.18345       95.53660
H         88.84801       65.05371       98.12124
H         87.01769       65.74841       96.01607
H         88.78523       65.47374       95.90506
N         89.40888       68.04161       96.79188
C         89.84587       69.41704       96.65541
C         89.67002       70.10430       97.98874
O         90.19314       69.64652       98.99514
C         91.31625       69.46102       96.19548
C         91.87556       70.86677       96.22899
C         91.30062       71.89306       95.46038
C         92.97068       71.16466       97.05962
C         91.80646       73.19513       95.53067
C         93.47582       72.46515       97.12545
C         92.89221       73.48658       96.36353
O         93.36256       74.74839       96.42664
H         89.95928       67.44209       97.41016
H         89.23393       69.94592       95.89303
H         91.39742       69.04055       95.17035
H         91.91782       68.81672       96.86750
H         90.45434       71.69031       94.81712
H         93.43134       70.39280       97.66440
H         91.34826       73.98039       94.94317
H         94.31692       72.67760       97.77353
H         94.10687       74.99148       96.99574
N         88.91146       71.22616       98.04839
C         88.54614       71.89382       99.28230
C         87.33850       71.16477       99.83525
O         87.40019       70.70299      100.96411
C         88.35943       73.41740       98.99454
C         89.74901       74.02266       98.64446
C         87.73821       74.16545      100.18459
C         89.70124       75.44798       98.09533
H         88.47376       71.56577       97.17742
H         89.35771       71.80795      100.03969
H         87.66781       73.53115       98.12983
H         90.23914       73.40626       97.86469
H         90.40000       73.99964       99.54751
H         87.58139       75.23693       99.94875
H         86.73940       73.75721      100.40920
H         88.37816       74.08182      101.08625
H         89.26370       76.16115       98.82077
H         90.73700       75.78480       97.87414
H         89.11686       75.46894       97.15159
N         86.22699       70.95792       99.07526
C         85.06026       70.23519       99.57650
C         84.44806       70.97607      100.75255
O         84.10925       70.34944      101.74611
C         84.03099       70.00074       98.46181
O         83.55492       71.21391       97.95133
H         86.21803       71.31324       98.10681
H         85.37370       69.22058       99.90675
H         83.18532       69.40459       98.87408
H         84.52133       69.41610       97.64896
H         82.90930       70.96976       97.23786
N         84.39114       72.33860      100.73432
C         83.94595       73.18452      101.83517
C         84.60235       72.80848      103.16759
O         83.91094       72.67899      104.16864
C         82.41575       73.19724      101.89512
H         84.74880       72.82539       99.89907
H         84.26227       74.22338      101.59000
H         82.02107       72.18656      102.12820
H         82.06734       73.91811      102.66438
H         82.00945       73.51957      100.91119
N         85.94300       72.57119      103.22977
C         86.66099       72.16872      104.43823
C         87.94244       72.96254      104.56037
O         88.64178       73.09107      103.56470
C         87.02268       70.68771      104.35692
H         86.47601       72.60834      102.35179
H         86.03267       72.28515      105.34934
H         86.09972       70.07633      104.27676
H         87.67420       70.48140      103.48656
H         87.56119       70.38686      105.28301
N         88.33776       73.49668      105.75326
C         89.55114       74.29628      105.91170
C         89.42241       75.53018      105.03957
O         90.27084       75.78621      104.19496
C         90.83717       73.47429      105.59637
C         91.06006       72.27940      106.53658
C         91.38461       72.71977      107.93610
O         90.60291       72.34292      108.96475
O         92.37411       73.40352      108.14920
H         87.74549       73.35226      106.58538
H         89.61590       74.64512      106.96626
H         91.73167       74.13298      105.65293
H         90.79736       73.08808      104.55867
H         91.92406       71.68725      106.16301
H         90.16618       71.61909      106.52994
N         88.32946       76.32851      105.17736
C         88.10431       77.47825      104.33245
H         87.13804       77.95670      104.59869
H         88.92327       78.21498      104.46566
H         88.05750       77.15725      103.26940
H         87.61705       76.09543      105.88647
Ca        92.73515       68.65595      100.42631
O         90.15042       69.48506      102.44309
H         89.39104       69.28469      101.84215
H         89.81887       69.25402      103.34698
O         92.87220       68.90551      103.57676
H         93.14999       69.66813      104.14326
H         92.45602       68.26612      104.20790
O         93.91696       66.07651      101.75210
H         94.86111       66.09665      101.45776
H         93.95710       65.80181      102.70263
O         92.30064       71.43606      100.67256
H         92.95794       72.09827      100.34335
H         91.54679       71.97538      101.01749
O         95.50858       69.43272      100.46226
H         95.50568       68.46779      100.68547
H         95.04095       69.86353      101.22191
O         91.19344       66.50082      102.50204
H         91.36838       65.67647      103.02049
H         90.22134       66.64694      102.59393

Ca 1.0



