%chk=apoCaM-CA-Ng.loop4.water5.frame503.chk
%nprocshared=20
%mem=10GB
%nosave
#b3lyp/svp scf=(tight,noincore,xqc) Test 
#IOP(5/87=12) Density=Current Pop=(MK,readradii) iop(6/33=2) iop(6/42=6)

apoCaM-CA-Ng.loop4.water5.frame503 

   -3  1 
C         69.16615       31.03413       56.59410
C         69.23986       30.28307       57.88860
O         69.97862       30.70985       58.76307
H         68.81300       32.06919       56.79100
H         70.17517       31.07752       56.13363
H         68.46563       30.55032       55.88285
N         68.47182       29.17058       58.10143
C         68.47757       28.38219       59.33579
C         67.95203       29.14224       60.55940
O         67.86400       28.53353       61.61728
C         69.87592       27.74997       59.55153
C         70.14085       26.71666       58.48269
O         69.43647       25.72090       58.43291
O         71.12360       26.85572       57.57073
H         67.85042       28.85001       57.34379
H         67.75452       27.54414       59.21645
H         69.92257       27.22538       60.53007
H         70.66747       28.52553       59.55989
N         67.54053       30.44345       60.49480
C         66.96298       31.17143       61.62512
C         65.57020       30.63623       61.97142
O         65.00890       29.90635       61.16588
C         66.94715       32.72154       61.35273
C         66.21876       33.11899       60.03336
C         68.39454       33.24356       61.40350
C         66.08322       34.62981       59.83927
H         67.63875       30.93692       59.61195
H         67.61891       30.97362       62.50137
H         66.40498       33.23200       62.17047
H         65.19540       32.68768       60.04276
H         66.74607       32.74186       59.13574
H         68.43432       34.34711       61.32480
H         68.84943       32.98477       62.38515
H         69.01168       32.79485       60.59814
H         67.07527       35.11773       59.75242
H         65.53678       34.82833       58.89286
H         65.51803       35.07997       60.68100
N         64.93854       30.89658       63.16043
C         65.50533       31.67490       64.26144
C         65.88742       30.80741       65.44944
O         66.72120       31.24990       66.22200
C         64.58105       32.85055       64.64204
C         63.21286       32.40901       65.09424
O         63.07044       31.64202       66.19179
O         62.22102       32.75974       64.47433
H         64.00786       30.47359       63.30435
H         66.46841       32.11505       63.96140
H         64.46961       33.50866       63.75166
H         65.04805       33.45192       65.45127
N         65.36596       29.56430       65.65178
C         65.80700       28.65549       66.70050
C         65.74658       29.24593       68.09589
O         64.72387       29.79769       68.47593
H         64.62925       29.21436       65.02420
H         66.84339       28.31976       66.47981
H         65.15684       27.75466       66.67166
N         66.80984       29.08717       68.94166
C         66.81116       29.53694       70.33495
C         67.00933       31.04325       70.49281
O         66.93189       31.51941       71.61725
C         67.86584       28.76794       71.17306
C         69.30168       29.03662       70.79523
O         69.72527       28.74776       69.68812
O         70.14270       29.56512       71.70422
H         67.59844       28.52003       68.60193
H         65.82632       29.26132       70.77511
H         67.67154       27.67653       71.09293
H         67.73231       29.04834       72.24148
N         67.27435       31.85978       69.43302
C         67.45921       33.29768       69.56535
C         68.76937       33.69707       70.22634
O         68.97689       34.88700       70.41220
H         67.32427       31.46319       68.49061
H         66.59209       33.72454       70.11244
H         67.47316       33.75152       68.54953
N         69.73033       32.77845       70.53587
C         71.06274       33.09403       71.04517
C         71.79264       34.01690       70.07610
O         72.31763       35.04750       70.47783
C         71.04350       33.66320       72.48164
C         70.29974       32.76989       73.48338
C         70.54476       33.26142       74.88902
N         69.53738       33.74188       75.65312
O         71.67915       33.22526       75.34355
H         69.55611       31.78716       70.32899
H         71.63205       32.13772       71.08103
H         70.57979       34.67384       72.50311
H         72.10504       33.76085       72.80122
H         70.66001       31.72118       73.41980
H         69.21482       32.78210       73.23809
H         68.57486       33.79626       75.29169
H         69.72760       34.07625       76.61015
N         71.80479       33.71700       68.74968
C         72.38989       34.59364       67.74095
C         73.90579       34.50201       67.72249
O         74.45104       33.40896       67.66486
C         71.78285       34.36392       66.32517
C         71.93876       32.93524       65.77638
C         70.30033       34.77479       66.31450
H         71.28804       32.87936       68.45044
H         72.11105       35.64562       67.97780
H         72.31029       35.05121       65.62510
H         73.00435       32.63717       65.73359
H         71.37818       32.19377       66.38044
H         71.53543       32.89139       64.74217
H         69.88253       34.69183       65.28928
H         69.70151       34.14057       67.00136
H         70.19596       35.83535       66.63366
N         74.64270       35.64972       67.68671
C         76.09743       35.69368       67.56387
C         76.55493       34.91875       66.34012
O         77.37207       34.02024       66.48759
C         76.55556       37.16857       67.47015
C         78.05000       37.31295       67.32303
N         78.57899       37.92164       66.23454
O         78.78855       36.88402       68.19658
H         74.13313       36.54678       67.70007
H         76.55546       35.24014       68.47181
H         76.23910       37.70806       68.38888
H         76.04902       37.65311       66.60678
H         77.97350       38.29201       65.48695
H         79.59961       38.02557       66.13627
N         76.06417       35.21319       65.10348
C         76.46245       34.50515       63.89123
C         75.75378       35.08880       62.68473
O         74.53032       35.16608       62.69724
C         76.10303       32.99336       63.93976
C         76.55344       32.31040       62.66071
C         77.92277       32.21108       62.35384
C         75.61190       31.80460       61.74754
C         78.34086       31.62619       61.15490
C         76.03563       31.22622       60.54595
C         77.40080       31.13717       60.24496
O         77.82089       30.58932       59.08669
H         75.37939       35.98166       65.02667
H         77.56354       34.60375       63.76775
H         75.00182       32.89678       64.06608
H         76.57912       32.47198       64.79388
H         78.66807       32.59261       63.03960
H         74.55115       31.87610       61.95374
H         79.39747       31.55998       60.92840
H         75.30650       30.85370       59.84368
H         77.20522       30.24624       58.42437
N         76.45096       35.37456       61.54950
C         75.76661       35.66398       60.29314
C         76.64988       35.37599       59.08249
O         77.86588       35.43184       59.21189
C         75.19698       37.10042       60.26596
C         76.29918       38.17200       60.32204
C         75.71292       39.55422       60.30694
O         75.94095       40.39472       61.33413
O         75.04067       39.92862       59.35894
H         77.46901       35.20896       61.55549
H         74.94261       34.92281       60.24536
H         74.51157       37.24046       61.12920
H         74.60392       37.24295       59.33728
H         76.97588       38.07114       59.44662
H         76.89847       38.04079       61.24875
N         76.14864       34.99794       57.86847
C         74.73153       34.83890       57.53823
C         74.35869       35.69498       56.34167
O         75.21948       36.35385       55.77475
C         74.40402       33.34111       57.32477
C         75.19332       32.67190       56.18844
C         74.79307       31.23127       56.04414
O         74.31737       30.82662       54.99562
O         74.96624       30.37529       57.06842
H         76.83209       34.77977       57.12703
H         74.08116       35.18460       58.36014
H         73.31728       33.22880       57.12078
H         74.61764       32.80382       58.27513
H         76.28178       32.70333       56.40171
H         74.99902       33.20817       55.23464
N         73.06307       35.74425       55.91906
C         72.61640       36.54803       54.79967
H         71.85247       37.27236       55.15213
H         73.44446       37.11596       54.32639
H         72.15976       35.88795       54.03320
H         72.34773       35.19466       56.41706
Ca        72.47054       28.63660       57.27858
O         75.86134       27.41552       56.12551
H         76.61395       27.23954       56.74426
H         76.28086       27.84654       55.33901
O         72.89494       30.29417       59.53260
H         72.52888       30.86502       58.81125
H         72.40895       30.57083       60.34800
O         73.81247       25.59388       57.67192
H         73.17855       25.21248       57.01396
H         74.44051       24.85462       57.86825
O         73.24997       27.26840       54.44465
H         73.13520       28.09235       53.90761
H         73.01848       26.53227       53.82430
O         74.96087       27.93848       59.34108
H         74.74858       28.07754       60.29806
H         75.93401       28.10759       59.27526

Ca 1.0



