%chk=apoCaM-CA-Ng.loop4.water4.frame1022.chk
%nprocshared=20
%mem=10GB
%nosave
#b3lyp/svp scf=(tight,noincore,xqc) Test 
#IOP(5/87=12) Density=Current Pop=(MK,readradii) iop(6/33=2) iop(6/42=6)

apoCaM-CA-Ng.loop4.water4.frame1022 

   -3  1 
C         22.59058       61.99884       37.52621
C         23.67717       61.26330       36.79115
O         24.63779       60.85749       37.42702
H         21.61924       61.48005       37.40695
H         22.82937       62.06508       38.60898
H         22.51315       63.03542       37.13373
N         23.64033       61.06819       35.44256
C         22.52281       61.47525       34.59885
C         21.40371       60.46473       34.72639
O         20.29286       60.84264       35.06915
C         22.95854       61.62429       33.11687
C         24.04589       62.65825       32.94133
O         24.49170       63.01036       31.71804
O         24.53123       63.21479       33.91471
H         24.45553       60.61829       34.99511
H         22.16434       62.48580       34.89726
H         22.07717       61.94567       32.52015
H         23.32380       60.65704       32.71497
N         21.63858       59.15140       34.44218
C         20.60689       58.11766       34.43839
C         20.35003       57.61876       33.01005
O         19.53776       56.72071       32.83259
C         20.94064       57.00981       35.49104
C         22.26880       56.22879       35.29727
C         20.96337       57.64922       36.89477
C         22.32503       55.36275       34.04304
H         22.59323       58.87244       34.16844
H         19.62966       58.54538       34.75371
H         20.10671       56.27277       35.48873
H         22.37723       55.52885       36.15641
H         23.14202       56.91478       35.31626
H         20.00483       58.16997       37.10412
H         21.10313       56.87313       37.67747
H         21.79241       58.38493       36.98420
H         23.26232       54.76687       34.05263
H         21.46378       54.66064       34.02172
H         22.33774       55.98239       33.12933
N         20.94354       58.22789       31.93769
C         20.70191       57.89859       30.52673
C         21.21701       59.06781       29.64616
O         21.50750       60.12104       30.20139
C         21.39343       56.54368       30.21406
C         20.93484       55.83515       28.96371
O         21.56166       54.70538       28.58489
O         19.96644       56.22046       28.32750
H         21.57596       59.00849       32.13844
H         19.60580       57.80541       30.36593
H         21.19578       55.81725       31.02808
H         22.48531       56.71078       30.17178
N         21.37961       58.98832       28.29144
C         21.96012       60.07846       27.51519
C         23.31568       59.68981       26.96971
O         23.72809       58.54568       27.10627
H         21.15697       58.13119       27.78007
H         22.12716       60.97561       28.15023
H         21.27434       60.38436       26.69760
N         24.10523       60.64685       26.41064
C         25.49925       60.42440       26.03813
C         25.84616       61.17461       24.75570
O         25.59253       62.36924       24.69887
C         26.42507       60.82449       27.21580
C         26.32201       62.23260       27.75744
O         27.09751       62.58536       28.79948
O         25.54506       63.05108       27.29527
H         23.74142       61.61218       26.39714
H         25.69182       59.34112       25.90159
H         27.47878       60.64047       26.91444
H         26.19802       60.14233       28.06075
N         26.47437       60.60146       23.68442
C         26.93458       59.22249       23.59780
C         25.80456       58.22817       23.41627
O         24.65828       58.65384       23.38069
H         26.71530       61.21794       22.89202
H         27.54539       58.99553       24.49301
H         27.58073       59.14963       22.70527
N         25.99883       56.87600       23.28885
C         27.26728       56.14256       23.29910
C         28.02750       56.36354       24.59285
O         29.07333       56.99553       24.57965
C         28.11564       56.35260       22.01352
C         29.30317       55.35890       21.96961
C         30.10826       55.45543       20.70086
N         29.55773       55.14577       19.50447
O         31.28361       55.78603       20.75741
H         25.15052       56.29525       23.19196
H         27.01534       55.05787       23.26377
H         28.50726       57.38259       21.93135
H         27.46140       56.15802       21.13614
H         28.93185       54.31515       22.06090
H         29.98087       55.55187       22.82585
H         28.57635       54.84035       19.43771
H         30.12220       55.19223       18.64309
N         27.53425       55.86411       25.76040
C         28.21288       55.97550       27.05228
C         27.22995       55.69087       28.18144
O         26.59700       54.64445       28.19623
C         29.46971       55.04798       27.21374
C         30.66153       55.44155       26.33187
C         29.17044       53.55330       27.00709
H         26.61163       55.40244       25.72494
H         28.55399       57.02666       27.18165
H         29.82473       55.18963       28.25948
H         30.90934       56.51563       26.47198
H         31.55551       54.85050       26.62254
H         30.47162       55.22047       25.26424
H         30.09174       52.95579       27.17442
H         28.42034       53.17786       27.72764
H         28.81029       53.36700       25.97323
N         27.08152       56.59837       29.18398
C         26.19573       56.41518       30.33021
C         26.95823       56.37214       31.64750
O         26.31356       56.28582       32.68395
C         25.16768       57.56438       30.35446
C         25.75386       58.94382       30.56817
N         24.94906       60.02309       30.54024
O         26.94742       59.10083       30.76814
H         27.64175       57.46148       29.13682
H         25.63256       55.46028       30.24197
H         24.43568       57.38208       31.17003
H         24.62404       57.55470       29.38684
H         23.94229       59.91883       30.37186
H         25.34424       60.96246       30.67483
N         28.31933       56.45400       31.69372
C         29.07449       56.56292       32.93575
C         29.85392       57.86702       32.94198
O         29.82703       58.58902       31.95579
C         29.93278       55.29311       33.13268
C         30.83185       54.94871       31.96441
C         31.96052       55.72433       31.65570
C         30.54258       53.82149       31.17371
C         32.78188       55.38054       30.57578
C         31.35872       53.48393       30.09222
C         32.48260       54.26301       29.78886
O         33.27931       53.94695       28.74809
H         28.86166       56.47475       30.81772
H         28.38802       56.61964       33.80870
H         29.20496       54.46360       33.27258
H         30.52984       55.34703       34.06793
H         32.21297       56.58555       32.25430
H         29.67825       53.20501       31.38730
H         33.65323       55.98270       30.35114
H         31.11517       52.61662       29.49192
H         33.10096       53.18549       28.17735
N         30.55969       58.24367       34.04235
C         31.29745       59.49781       34.13540
C         30.82753       60.22198       35.38654
O         31.57659       60.31628       36.35057
C         32.80333       59.15279       34.15144
C         33.76607       60.35187       34.07506
C         33.69927       61.08736       32.75888
O         32.59831       61.77611       32.40431
O         34.66619       61.08713       32.01355
H         30.58931       57.60598       34.85306
H         31.10102       60.13493       33.25288
H         33.03023       58.50302       33.27997
H         33.02294       58.56440       35.06962
H         34.79328       59.93920       34.18370
H         33.59774       61.06112       34.91079
N         29.55143       60.70036       35.46728
C         28.97341       61.09269       36.74707
C         28.66805       59.81057       37.48896
O         29.15825       59.61572       38.59182
C         27.68493       61.95010       36.65020
C         27.87384       63.29556       35.91477
C         27.70987       63.18655       34.42323
O         27.90768       64.24690       33.61773
O         27.28161       62.15821       33.92256
H         28.94107       60.60452       34.64571
H         29.70210       61.71726       37.31396
H         27.41557       62.19256       37.70331
H         26.82516       61.39201       36.22399
H         28.84721       63.74782       36.19851
H         27.06990       63.99302       36.23907
N         27.89925       58.85886       36.88205
C         27.61010       57.56227       37.45284
H         26.51073       57.42339       37.50859
H         28.03499       56.77635       36.79131
H         28.04268       57.44120       38.46674
H         27.52540       59.04227       35.93806
Ca        26.45496       64.10261       31.91074
O         29.04863       61.52950       30.83888
H         28.96433       60.55641       30.69873
H         29.66875       61.81476       30.12295
O         27.87506       65.66080       29.67747
H         28.84391       65.85549       29.73683
H         27.43550       66.48461       30.00698
O         30.19972       64.17069       31.62593
H         30.86005       63.77499       31.00344
H         30.45365       63.81604       32.51474
O         24.57115       66.28315       31.30494
H         24.47956       65.93954       32.22931
H         25.00912       67.16435       31.41188

Ca 1.0



