%chk=apoCaM-CA-Ng.loop2.water3.frame415.chk
%nprocshared=20
%mem=10GB
%nosave
#b3lyp/svp scf=(tight,noincore,xqc) Test 
#IOP(5/87=12) Density=Current Pop=(MK,readradii) iop(6/33=2) iop(6/42=6)

apoCaM-CA-Ng.loop2.water3.frame415 

   -2  1 
C         72.63071      103.38688      -11.58168
C         72.19395      104.25035      -12.73048
O         73.04539      104.83546      -13.38091
H         73.17306      104.00950      -10.83830
H         71.76344      102.91463      -11.07374
H         73.30695      102.58691      -11.94788
N         70.87479      104.36747      -13.04889
C         70.37838      105.23554      -14.11356
C         70.58714      106.69216      -13.72948
O         70.13034      107.08454      -12.66322
C         68.87675      104.96248      -14.34452
C         68.32204      105.77864      -15.47928
O         68.78128      105.66134      -16.60447
O         67.30704      106.63579      -15.26048
H         70.19408      103.81059      -12.50838
H         70.90648      104.99022      -15.06218
H         68.30490      105.17827      -13.41502
H         68.73723      103.88751      -14.59288
N         71.24347      107.56314      -14.55531
C         71.44060      108.96689      -14.19044
C         72.38223      109.12706      -13.00381
O         72.44755      110.21811      -12.45535
C         71.94994      109.78460      -15.37789
H         71.57153      107.22739      -15.47372
H         70.44539      109.38007      -13.90845
H         72.03645      110.85649      -15.09589
H         72.94195      109.41465      -15.71134
H         71.22935      109.70766      -16.21998
N         73.11902      108.07657      -12.53647
C         73.88156      108.07749      -11.29789
C         75.02360      109.07642      -11.33793
O         75.13108      109.93560      -10.47389
C         72.88860      108.25978      -10.13479
C         73.46304      108.03332       -8.77748
O         73.34731      108.88504       -7.91170
O         73.97531      106.83381       -8.46825
H         73.10480      107.19132      -13.05121
H         74.34253      107.06751      -11.19103
H         72.08473      107.49948      -10.25677
H         72.41731      109.26247      -10.17545
N         75.94170      108.98597      -12.33726
C         77.11279      109.83482      -12.44960
C         78.07064      109.62193      -11.30097
O         78.55107      110.60336      -10.75211
H         75.81182      108.26612      -13.06502
H         76.81916      110.90596      -12.53302
H         77.64753      109.56137      -13.38410
N         78.40431      108.36014      -10.89247
C         79.36900      108.08908       -9.83107
C         80.50230      107.24587      -10.39553
O         80.26647      106.15171      -10.88959
C         78.68052      107.42102       -8.62210
C         79.60281      107.24209       -7.42751
N         79.11804      106.75545       -6.26321
O         80.78433      107.54864       -7.49605
H         77.95014      107.55469      -11.35132
H         79.78434      109.04800       -9.45136
H         78.24887      106.43909       -8.91315
H         77.84789      108.08362       -8.30106
H         78.12453      106.51122       -6.16967
H         79.73653      106.63345       -5.44734
N         81.77023      107.73731      -10.37153
C         82.92741      107.09640      -10.96798
C         83.33092      105.78678      -10.32539
O         83.47820      105.72571       -9.11254
H         81.92807      108.66387       -9.94745
H         83.79068      107.78289      -10.83615
H         82.76854      106.97833      -12.06201
N         83.66766      104.73181      -11.12074
C         84.27559      103.49766      -10.62795
C         83.33268      102.68610       -9.75626
O         83.71205      102.34608       -8.64596
C         84.88400      102.64191      -11.78477
C         83.92080      102.18861      -12.89754
O         85.97834      103.31688      -12.35698
H         83.58102      104.86375      -12.13834
H         85.15742      103.76490       -9.99963
H         85.29660      101.71817      -11.32124
H         85.63317      104.09943      -12.85925
H         83.48918      103.05022      -13.44411
H         84.47916      101.56622      -13.62870
H         83.09550      101.57114      -12.51194
N         82.09287      102.33627      -10.19649
C         81.17972      101.47956       -9.44562
C         80.00504      102.32501       -9.00140
O         79.36203      102.95015       -9.82915
C         80.75835      100.26996      -10.32577
C         82.00145       99.39029      -10.63174
C         79.66529       99.43030       -9.63210
C         81.75361       98.34117      -11.71513
H         81.76994      102.70135      -11.10365
H         81.67260      101.06826       -8.53743
H         80.34312      100.67079      -11.27737
H         82.35809       98.89830       -9.70022
H         82.83294      100.01917      -10.99801
H         78.76446      100.04512       -9.42629
H         79.33156       98.59343      -10.27639
H         80.04009       99.01881       -8.67043
H         80.97903       97.60994      -11.41353
H         81.44520       98.84010      -12.65897
H         82.69470       97.78326      -11.90623
N         79.71184      102.40779       -7.67050
C         78.68087      103.28235       -7.11793
C         78.82530      103.30158       -5.59458
O         77.85217      103.09437       -4.88668
C         77.27560      102.80718       -7.58460
C         76.13433      103.70580       -7.18854
O         74.99528      103.40035       -7.50246
O         76.34425      104.84363       -6.50345
H         80.29265      101.85930       -7.02002
H         78.88487      104.30996       -7.48587
H         77.09203      101.78832       -7.17633
H         77.24248      102.73803       -8.68941
N         80.05397      103.47835       -5.03057
C         80.33771      103.40468       -3.59511
C         79.73100      102.14135       -2.97835
O         79.97447      101.06579       -3.49904
C         81.87522      103.45426       -3.38669
C         82.32440      103.29876       -1.94884
C         82.80368      104.40461       -1.22670
C         82.30388      102.03556       -1.32514
C         83.23378      104.25188        0.09613
C         82.74071      101.88650       -0.00725
C         83.20226      102.99436        0.70483
H         80.85413      103.61362       -5.67063
H         79.91478      104.30189       -3.10598
H         82.21549      104.43829       -3.77947
H         82.38738      102.67223       -3.99034
H         82.83816      105.38568       -1.68291
H         81.96769      101.15789       -1.85938
H         83.59515      105.10854        0.64940
H         82.72597      100.90948        0.45916
H         83.54067      102.87639        1.72602
N         78.95511      102.19421       -1.84307
C         78.40895      101.00901       -1.18779
C         77.09069      100.56230       -1.81026
O         76.58744       99.50904       -1.43228
C         78.18927      101.50396        0.24889
C         77.72645      102.93231        0.01828
C         78.68662      103.39483       -1.07427
H         79.13668      100.16978       -1.18851
H         77.51285      100.87854        0.87040
H         79.17915      101.56499        0.75611
H         76.69947      102.88493       -0.40708
H         77.69753      103.59163        0.91125
H         78.20515      104.20402       -1.66683
H         79.64640      103.75113       -0.63891
N         76.43323      101.34511       -2.70448
C         75.12655      101.03467       -3.27055
C         75.20439       99.95336       -4.34145
O         74.15646       99.53470       -4.81264
C         74.55002      102.30927       -3.91759
C         74.35013      103.45962       -2.90681
C         74.22332      104.73905       -3.66908
O         75.06850      105.61216       -3.54615
O         73.26052      104.87554       -4.59043
H         76.84532      102.25781       -2.92961
H         74.44306      100.71007       -2.45398
H         73.58033      102.11175       -4.42652
H         75.27945      102.62262       -4.69626
H         75.22802      103.57019       -2.23977
H         73.46206      103.26585       -2.26831
N         76.39485       99.48765       -4.82018
C         76.45628       98.50812       -5.88412
H         77.51527       98.29230       -6.14081
H         75.96369       97.56591       -5.56470
H         75.94951       98.90287       -6.79145
H         77.28655       99.85012       -4.45657
Ca        73.75771      106.18176       -6.33953
O         73.67236      108.64352       -4.35394
H         73.00654      108.92285       -5.03152
H         73.60213      109.32607       -3.64032
O         70.94078      105.67554       -7.16923
H         70.92812      106.66223       -7.08740
H         70.93682      105.34964       -6.23413
O         76.11316      108.77936       -6.30703
H         76.85836      109.17078       -5.78594
H         75.85720      109.49198       -6.94492

Ca 1.0



