%chk=apoCaM-CA-Ng.loop4.water3.frame380.chk
%nprocshared=20
%mem=10GB
%nosave
#b3lyp/svp scf=(tight,noincore,xqc) Test 
#IOP(5/87=12) Density=Current Pop=(MK,readradii) iop(6/33=2) iop(6/42=6)

apoCaM-CA-Ng.loop4.water3.frame380 

   -3  1 
C         38.78839       94.61439        9.22336
C         40.29600       94.39352        9.16634
O         40.84622       95.58446        8.73116
H         38.26829       93.70179        9.57489
H         38.55844       95.45760        9.91295
H         38.41266       94.88014        8.21174
N         40.81208       94.07944       10.50486
C         42.27362       93.86282       10.60259
C         43.08713       95.12549       10.30694
O         43.43943       95.35998        9.16500
C         42.76264       92.55675        9.91606
C         42.55420       92.46661        8.42695
O         43.14659       93.21095        7.66546
O         41.74521       91.51533        7.92164
H         40.32525       93.22164       10.85584
H         42.46038       93.66208       11.68093
H         42.20755       91.71262       10.38111
H         43.84179       92.40400       10.13425
N         43.35227       96.01216       11.31719
C         44.10920       97.27153       11.24080
C         45.61170       96.99699       11.09386
O         46.34418       97.26202       12.03695
C         43.53665       98.28700       10.19770
C         44.17171       99.70441       10.32326
C         42.00342       98.40438       10.28756
C         43.84634      100.46916       11.61390
H         42.95905       95.79035       12.24485
H         43.97968       97.73946       12.24021
H         43.77231       97.90607        9.18035
H         43.82000      100.32561        9.46965
H         45.27064       99.63592       10.25955
H         41.67525       98.74225       11.29050
H         41.62601       99.11149        9.51698
H         41.52183       97.43081       10.10625
H         42.75749      100.65283       11.71430
H         44.21593       99.93282       12.51010
H         44.34396      101.46111       11.58437
N         46.13563       96.41523        9.97691
C         47.51862       95.96282        9.86763
C         48.54206       97.10006        9.83055
O         49.49149       97.02281       10.59693
C         47.67979       95.01859        8.64734
C         49.05291       94.40762        8.58097
O         49.50590       93.64966        9.59815
O         49.75779       94.58429        7.60015
H         45.51873       96.21016        9.18738
H         47.73356       95.31450       10.74839
H         47.46836       95.53472        7.69538
H         46.94532       94.18864        8.73591
N         48.49500       98.15371        8.96040
C         47.34538       98.46413        8.13088
C         47.58199       99.64982        7.21581
O         48.10128      100.64607        7.69897
H         49.29736       98.80323        8.95124
H         46.51515       98.72514        8.79989
H         47.02883       97.59309        7.58007
N         47.16403       99.70257        5.90918
C         46.41139       98.67820        5.18495
C         45.11495       98.32946        5.91967
O         44.99289       97.21635        6.41140
C         47.29195       97.45055        4.84027
C         48.50947       97.85545        4.05776
O         48.39302       98.42618        2.98483
O         49.73822       97.58560        4.53829
H         47.33931      100.58103        5.39564
H         46.12286       99.08309        4.19072
H         46.69507       96.74358        4.22368
H         47.63125       96.89653        5.72920
N         44.05994       99.19037        6.01958
C         43.94064      100.45119        5.31404
C         44.69454      101.57861        5.95102
O         45.26966      101.42061        7.01762
H         43.22916       98.87334        6.53314
H         42.87280      100.76395        5.32384
H         44.22282      100.31663        4.24947
N         44.65763      102.79632        5.35009
C         45.25710      103.99415        5.91342
C         44.18079      104.93287        6.45148
O         44.53888      105.93127        7.05882
C         46.26938      104.62013        4.92220
C         45.76778      104.88603        3.49067
C         44.64678      105.87821        3.42036
N         44.82169      107.14765        3.84840
O         43.57430      105.53892        2.94756
H         44.11427      102.88706        4.47754
H         45.84974      103.73431        6.81885
H         47.11057      103.89950        4.81785
H         46.69135      105.54857        5.36318
H         45.45735      103.92804        3.02120
H         46.61314      105.27856        2.88558
H         45.72475      107.45653        4.23471
H         44.05462      107.82756        3.78122
N         42.85134      104.60717        6.38159
C         41.80689      105.28794        7.14246
C         40.72101      105.88923        6.26170
O         39.77453      106.42737        6.82376
C         41.17929      104.28607        8.16633
C         42.23863      103.75422        9.14518
C         40.45266      103.10098        7.49664
H         42.55638      103.77978        5.85087
H         42.23707      106.12860        7.73048
H         40.42551      104.84049        8.76891
H         43.01613      103.16507        8.61289
H         42.72864      104.59718        9.67668
H         41.76405      103.09621        9.90466
H         39.65572      103.46147        6.81321
H         41.15060      102.45633        6.92421
H         39.97084      102.46594        8.27009
N         40.77773      105.86773        4.89766
C         39.72570      106.43131        4.05585
C         39.17567      105.43518        3.03356
O         38.24152      105.81057        2.34012
C         40.27193      107.66259        3.29558
C         40.80236      108.74181        4.20990
N         40.00260      109.34853        5.11654
O         41.96913      109.08752        4.11611
H         41.61051      105.48035        4.43753
H         38.86640      106.76005        4.67957
H         39.46498      108.10967        2.67549
H         41.08598      107.33149        2.61141
H         39.01153      109.08686        5.20922
H         40.37906      110.08962        5.72702
N         39.73519      104.20270        2.81013
C         39.35759      103.37437        1.66483
C         39.16724      101.90328        2.00348
O         40.06667      101.29742        2.56505
C         40.47390      103.46247        0.60061
C         40.59045      104.83395       -0.01880
C         41.78941      105.55846        0.06341
C         39.50318      105.38673       -0.71931
C         41.89770      106.81522       -0.54048
C         39.61219      106.64207       -1.32006
C         40.80801      107.36022       -1.23588
O         40.89986      108.56558       -1.83224
H         40.55256      103.90157        3.35664
H         38.42396      103.74010        1.19113
H         40.24885      102.76754       -0.23292
H         41.43956      103.14287        1.05339
H         42.64286      105.14803        0.58447
H         38.57098      104.84405       -0.81036
H         42.83027      107.36064       -0.47316
H         38.76701      107.05223       -1.85850
H         41.71288      109.08970       -1.81082
N         38.07210      101.23972        1.51237
C         37.91777       99.78266        1.45263
C         37.72017       99.08900        2.78650
O         37.63460       97.86773        2.77271
C         39.08613       99.13157        0.66563
C         39.18345       99.67000       -0.76811
C         40.29541       98.99720       -1.51916
O         41.56681       99.10614       -1.08776
O         40.05395       98.35625       -2.52949
H         37.35197      101.78770        1.01881
H         36.99115       99.55996        0.87725
H         38.91274       98.03464        0.59747
H         40.04990       99.28102        1.19609
H         39.37618      100.75892       -0.75921
H         38.21811       99.49191       -1.29087
N         37.57699       99.76175        3.96215
C         37.40602       99.07118        5.23768
C         36.01024       99.26526        5.80566
O         35.73702       98.72033        6.86705
C         38.50932       99.53410        6.21440
C         39.93440       99.39909        5.62814
C         40.34731       97.97662        5.36435
O         39.70045       97.24476        4.63600
O         41.45329       97.50206        5.94562
H         37.58261      100.79222        3.96812
H         37.49363       97.97333        5.11221
H         38.43920       98.96462        7.16843
H         38.34144      100.60891        6.44431
H         40.64965       99.84199        6.35557
H         40.01377       99.98092        4.69285
N         35.05058       99.97136        5.14042
C         33.69870      100.08518        5.64130
H         33.24147       99.07520        5.72258
H         33.69916      100.57573        6.63663
H         33.08623      100.69122        4.94007
H         35.25911      100.42494        4.24004
Ca        41.52876       95.38957        6.59705
O         40.50138       93.80275        4.20296
H         39.86571       93.06347        4.37423
H         39.93475       94.54859        3.88214
O         45.35963       94.28656        5.85803
H         45.82377       94.25572        4.98417
H         45.63603       93.45356        6.31623
O         43.31566       95.80876        3.71189
H         42.64257       95.42212        3.09711
H         43.53525       96.68989        3.31712

Ca 1.0



