%chk=apoCaM-CA-Ng.loop2.water4.frame1351.chk
%nprocshared=20
%mem=10GB
%nosave
#b3lyp/svp scf=(tight,noincore,xqc) Test 
#IOP(5/87=12) Density=Current Pop=(MK,readradii) iop(6/33=2) iop(6/42=6)

apoCaM-CA-Ng.loop2.water4.frame1351 

   -2  1 
C         58.38816       63.75507       73.65993
C         58.87554       62.96113       72.47201
O         59.96151       63.28137       72.01065
H         57.39512       63.48780       74.05100
H         59.11785       63.65154       74.48992
H         58.33698       64.82632       73.37052
N         58.19242       61.93935       71.87006
C         56.90034       61.38347       72.27267
C         55.80049       61.72251       71.27248
O         54.70155       62.03164       71.71268
C         56.99583       59.86961       72.58284
C         57.43068       58.94507       71.47342
O         57.49234       57.62349       71.71866
O         57.73822       59.35687       70.36937
H         58.64570       61.52327       71.04368
H         56.56282       61.80872       73.23236
H         55.99690       59.52795       72.93191
H         57.71213       59.73325       73.42224
N         56.03536       61.78022       69.92930
C         55.04558       62.22558       68.95331
C         54.83201       61.21176       67.83344
O         54.15374       61.55138       66.87308
C         55.54498       63.54955       68.36158
H         56.97823       61.57520       69.57118
H         54.06109       62.43146       69.42750
H         56.51943       63.40745       67.84647
H         54.80939       63.95803       67.63604
H         55.67576       64.29813       69.17263
N         55.36536       59.95484       67.87190
C         55.29474       59.03448       66.73096
C         55.76624       57.61411       67.08148
O         56.22736       57.37482       68.19017
C         56.17477       59.58645       65.57108
C         57.62554       59.69013       65.98766
O         58.49354       59.94407       65.16832
O         57.95247       59.42602       67.26820
H         55.84601       59.65409       68.72817
H         54.23281       58.94416       66.41543
H         55.81806       60.57689       65.21972
H         56.10777       58.88783       64.71083
N         55.64579       56.60579       66.16523
C         56.02344       55.22957       66.45378
C         57.52289       54.99642       66.40594
O         58.27298       55.76178       66.99274
H         55.17866       56.80144       65.26750
H         55.53576       54.55245       65.72010
H         55.62683       54.95102       67.45382
N         58.02170       53.88216       65.78720
C         59.43876       53.51414       65.82618
C         60.31098       54.36176       64.90567
O         61.52050       54.17464       64.93030
C         59.62821       52.01969       65.47769
C         58.89432       51.11981       66.44477
N         57.96348       50.24072       66.00606
O         59.15364       51.17807       67.63797
H         57.35224       53.21535       65.37243
H         59.80408       53.64730       66.86960
H         60.70767       51.75955       65.54206
H         59.29124       51.83182       64.43488
H         57.73618       50.16508       65.00422
H         57.47199       49.62557       66.67175
N         59.79264       55.30988       64.07272
C         60.61741       56.15480       63.22053
C         61.54979       56.99885       64.06738
O         61.07628       57.50812       65.07295
H         58.77521       55.46321       64.03821
H         59.94450       56.84526       62.66825
H         61.14103       55.52224       62.48062
N         62.86341       57.24707       63.77847
C         63.57726       56.90636       62.54669
C         64.77967       56.01344       62.83026
O         64.89485       54.96930       62.20437
C         64.00471       58.20729       61.81568
C         62.78371       59.04963       61.40027
O         64.90796       58.97209       62.57903
H         63.37847       57.80992       64.47217
H         62.93074       56.37120       61.82664
H         64.52562       57.92198       60.87540
H         64.39592       59.47165       63.26702
H         62.11151       58.45578       60.74468
H         62.20524       59.38002       62.28975
H         63.11457       59.95086       60.84276
N         65.69474       56.34610       63.78595
C         66.85136       55.52074       64.14118
C         66.57611       54.82092       65.46798
O         65.88267       55.40326       66.28953
C         68.17214       56.36063       64.18767
C         68.06289       57.59988       65.12372
C         68.58611       56.76558       62.76256
C         69.38460       58.33839       65.34347
H         65.51490       57.18620       64.34915
H         66.99534       54.73289       63.38508
H         68.97567       55.70068       64.58182
H         67.70977       57.27367       66.12392
H         67.33586       58.33292       64.71471
H         67.82999       57.43629       62.30368
H         69.57227       57.27218       62.75865
H         68.69520       55.85913       62.12936
H         69.78003       58.76296       64.39928
H         69.21504       59.18628       66.04167
H         70.13771       57.65687       65.79125
N         67.07164       53.58487       65.79792
C         67.95388       52.74906       64.97160
C         68.78680       51.79178       65.82750
O         68.57227       51.73008       67.03614
C         67.15644       51.95978       63.89901
C         66.15988       50.97138       64.45471
O         65.97848       50.81961       65.78099
O         65.50220       50.29140       63.68336
H         66.83714       53.25746       66.74864
H         68.69680       53.40940       64.47691
H         67.87315       51.40221       63.25927
H         66.59909       52.64865       63.23828
N         69.80277       51.04898       65.28889
C         70.67983       50.23577       66.13708
C         72.08051       50.03450       65.54590
O         72.25666       50.36075       64.37361
C         69.96499       48.91875       66.54254
C         69.86895       47.90463       65.42349
C         68.64091       47.64442       64.79143
C         71.00711       47.17680       65.02542
C         68.56090       46.68799       63.77201
C         70.92114       46.21863       64.01381
C         69.69963       45.97579       63.38460
H         70.01497       51.17234       64.28535
H         70.82748       50.84864       67.03517
H         68.94855       49.18284       66.90463
H         70.46283       48.42769       67.40014
H         67.74814       48.18381       65.08111
H         71.96144       47.33137       65.50691
H         67.61492       46.49495       63.28364
H         71.80254       45.66095       63.72283
H         69.63609       45.23187       62.60098
N         73.15600       49.54224       66.25188
C         73.20140       49.15967       67.67068
C         72.62332       50.23863       68.55314
O         71.69914       49.96931       69.31001
C         74.70042       48.96979       67.94928
C         75.19843       48.46317       66.61676
C         74.45939       49.37319       65.64352
H         72.66777       48.19440       67.79892
H         75.19797       49.95320       68.10426
H         74.92609       48.32496       68.82517
H         76.30148       48.45272       66.48894
H         74.80995       47.42725       66.48607
H         74.93562       50.37562       65.54979
H         74.41423       48.87491       64.65022
N         73.02281       51.52510       68.36822
C         72.25876       52.66886       68.84286
C         72.53189       52.93021       70.31322
O         73.67567       53.20285       70.64866
C         72.58991       53.90844       67.97568
C         72.26491       53.65929       66.48080
C         72.61267       54.81756       65.59015
O         73.15539       55.94504       66.08870
O         72.41726       54.72699       64.38840
H         73.78340       51.69205       67.69211
H         71.18220       52.47036       68.66521
H         73.66936       54.15491       68.08231
H         71.98871       54.77417       68.33012
H         71.18240       53.43756       66.37158
H         72.83435       52.78994       66.09497
N         71.56049       52.88286       71.27098
C         70.17331       52.55977       71.00797
H         69.73088       53.29414       70.30244
H         70.09023       51.53552       70.59012
H         69.59244       52.59068       71.95426
H         71.82252       53.08601       72.24821
Ca        59.72033       58.29527       68.03143
O         60.62578       57.54928       71.09574
H         60.35732       57.12761       71.95053
H         61.57028       57.27955       70.97163
O         58.47505       55.01677       69.75360
H         58.16598       55.22280       70.67033
H         57.70443       54.55978       69.33209
O         61.39654       55.80353       68.18653
H         62.23003       55.28992       68.04401
H         61.06105       55.98393       67.27342
O         62.26975       59.29665       67.69108
H         61.97696       59.94283       68.38247
H         61.69055       59.49281       66.91140

Ca 1.0



