%chk=apoCaM-CA-Ng.loop3.water5.frame72.chk
%nprocshared=20
%mem=10GB
%nosave
#b3lyp/svp scf=(tight,noincore,xqc) Test 
#IOP(5/87=12) Density=Current Pop=(MK,readradii) iop(6/33=2) iop(6/42=6)

apoCaM-CA-Ng.loop3.water5.frame72 

   0  1 
C         75.16089       58.96127       52.83141
C         76.13768       58.25400       51.93928
O         76.26534       58.63378       50.78476
H         74.14018       58.87609       52.40350
H         75.15164       58.52106       53.85151
H         75.43828       60.03247       52.91191
N         76.85707       57.19758       52.41127
C         77.81042       56.42938       51.62110
C         77.11180       55.77409       50.44248
O         77.52341       55.93278       49.30075
C         79.04290       57.26610       51.21441
C         79.76578       57.81182       52.41742
O         80.91665       57.47515       52.64636
O         79.15488       58.68458       53.24169
H         76.71106       56.89625       53.38738
H         78.19045       55.59838       52.25952
H         78.75468       58.10709       50.55151
H         79.74010       56.60650       50.64976
N         76.05088       54.95961       50.68823
C         75.41582       54.12170       49.67597
C         74.54059       54.89204       48.68313
O         73.96789       54.25150       47.81307
C         74.62888       53.01125       50.41105
C         74.33880       51.76628       49.55770
C         73.78434       50.64829       50.45093
C         73.67431       49.31825       49.69953
N         73.19708       48.26322       50.59358
H         75.77105       54.83950       51.67511
H         76.23192       53.60810       49.12016
H         73.70607       53.42044       50.87869
H         75.29343       52.64791       51.22733
H         75.30078       51.41704       49.12076
H         73.62985       51.98240       48.73216
H         72.79168       50.94954       50.85097
H         74.47870       50.49047       51.30600
H         74.67879       49.03421       49.31130
H         72.97961       49.42354       48.83796
H         72.23994       48.49630       50.94436
H         73.16018       47.35889       50.07100
H         73.85050       48.15536       51.40417
N         74.40706       56.25433       48.71261
C         73.59839       56.98944       47.73996
C         74.49492       57.47128       46.61342
O         75.70851       57.49284       46.77402
C         72.84577       58.12757       48.47261
C         71.82236       58.89222       47.66594
O         70.65518       58.89124       48.02359
O         72.17745       59.64183       46.60466
H         74.94462       56.80568       49.39358
H         72.85060       56.29732       47.29370
H         73.58465       58.84790       48.88319
H         72.31439       57.66981       49.33626
N         73.96456       57.79261       45.40209
C         74.77200       58.18476       44.26278
C         75.54305       59.44809       44.54462
O         76.76010       59.43191       44.42645
H         72.94728       57.71696       45.26195
H         74.10977       58.35693       43.38941
H         75.46703       57.35737       43.99625
N         74.89193       60.58399       44.92676
C         75.57096       61.85060       45.18653
C         75.47169       62.29464       46.64658
O         76.05281       63.31999       46.97418
C         75.07679       62.93008       44.19927
C         73.64046       63.36163       44.39346
N         73.34125       64.65515       44.65306
O         72.73610       62.55004       44.28966
H         73.87040       60.54199       45.02902
H         76.65824       61.73203       44.98594
H         75.19748       62.54303       43.16353
H         75.73952       63.81645       44.29765
H         74.08247       65.36658       44.72649
H         72.36029       64.94958       44.76927
N         74.82952       61.55010       47.59537
C         74.87739       61.86161       49.01794
C         74.15467       63.12683       49.42934
O         73.53556       63.79255       48.61144
H         74.37132       60.66978       47.32938
H         75.94184       61.92825       49.32902
H         74.41109       61.02842       49.58686
N         74.21006       63.50149       50.74203
C         73.53101       64.66801       51.30832
C         72.00469       64.49719       51.23617
O         71.51765       63.46354       50.79983
C         74.06082       64.88969       52.76250
C         73.44799       66.05098       53.51886
C         73.56822       67.38029       53.06213
C         72.70436       65.79685       54.68420
C         72.91535       68.41952       53.74010
C         72.06333       66.83576       55.36047
C         72.15581       68.14954       54.88457
O         71.51467       69.15500       55.51455
H         74.78686       62.92082       51.37125
H         73.80972       65.56323       50.70878
H         75.16049       65.05108       52.72015
H         73.88219       63.95068       53.32944
H         74.12979       67.60670       52.16462
H         72.59988       64.78742       55.06055
H         72.98458       69.43426       53.36781
H         71.48243       66.61376       56.24671
H         70.96327       69.00262       56.29606
N         71.19697       65.52555       51.61048
C         69.75393       65.59697       51.46382
C         69.52125       66.76417       50.52242
O         69.01206       66.53807       49.43624
C         69.06707       65.74499       52.85715
C         69.30713       64.44707       53.67830
C         67.55873       66.02058       52.70586
C         68.71777       64.46287       55.09116
H         71.63273       66.37648       51.95453
H         69.35451       64.67378       50.98443
H         69.51673       66.60907       53.39601
H         70.39921       64.27794       53.78005
H         68.87604       63.57776       53.13399
H         67.38563       66.94509       52.12755
H         67.04901       65.17963       52.19162
H         67.08297       66.19067       53.69312
H         67.61114       64.53276       55.07046
H         68.97272       63.51020       55.60281
H         69.13501       65.30635       55.67893
N         69.99836       68.01423       50.82113
C         70.05430       69.08195       49.82830
C         68.69593       69.63397       49.46325
O         68.60800       70.28749       48.43319
C         70.97408       70.22467       50.29107
O         72.25732       69.74041       50.58636
H         70.45120       68.17347       51.73313
H         70.50960       68.64609       48.90975
H         70.55677       70.69609       51.20642
H         71.04508       71.01842       49.51263
H         72.68183       69.50595       49.71994
N         67.59034       69.40735       50.23568
C         66.24222       69.84288       49.88803
C         65.71064       69.14209       48.64168
O         64.60857       69.46779       48.22578
C         66.17363       71.37470       49.75060
H         67.69796       68.90091       51.12326
H         65.55973       69.56955       50.72356
H         66.77052       71.75100       48.89646
H         65.12312       71.69670       49.58813
H         66.54060       71.85456       50.68251
N         66.41808       68.15510       48.00850
C         65.96874       67.49144       46.79728
C         65.80218       66.00255       47.01000
O         66.23134       65.46623       48.02193
C         67.00860       67.72318       45.69680
H         67.31917       67.84739       48.37934
H         64.99077       67.90548       46.47291
H         67.14584       68.81087       45.52487
H         67.98849       67.29057       46.00284
H         66.69631       67.24616       44.74481
N         65.14642       65.27844       46.05984
C         64.95066       63.83649       46.08671
C         64.34050       63.38652       47.40879
O         64.89216       62.50910       48.06212
C         66.27517       63.10220       45.79695
C         66.99461       63.59259       44.52835
C         68.22027       62.75193       44.32547
O         69.11062       62.64574       45.33177
O         68.36362       62.10601       43.30231
H         64.73995       65.78517       45.25881
H         64.24661       63.58108       45.26293
H         66.05010       62.01676       45.69249
H         66.96684       63.23871       46.65753
H         67.29992       64.65351       44.65391
H         66.32393       63.51565       43.64418
N         63.21556       63.98488       47.88628
C         62.62459       63.64906       49.16772
H         61.57226       63.33318       49.02044
H         63.16612       62.82901       49.68669
H         62.64860       64.54275       49.82632
H         62.77425       64.73750       47.33725
Ca        70.63732       60.99485       45.63064
O         70.22400       62.82460       48.07164
H         69.85023       63.71850       47.86758
H         71.16261       62.87202       47.76034
O         72.27329       60.10704       42.80909
H         72.03824       59.34771       42.21939
H         72.50486       60.84217       42.18803
O         69.23932       59.48858       42.96027
H         68.81503       58.79028       42.40305
H         69.64372       60.11317       42.30746
O         70.28310       57.79723       45.00892
H         70.57666       57.00959       44.48617
H         69.71301       57.42449       45.72687
O         67.92220       60.07786       46.52472
H         67.49972       59.68109       45.72194
H         67.83203       59.38431       47.22485

Ca 1.0



