%chk=apoCaM-CA-Ng.loop4.water3.frame393.chk
%nprocshared=20
%mem=10GB
%nosave
#b3lyp/svp scf=(tight,noincore,xqc) Test 
#IOP(5/87=12) Density=Current Pop=(MK,readradii) iop(6/33=2) iop(6/42=6)

apoCaM-CA-Ng.loop4.water3.frame393 

   -3  1 
C         25.58912       77.09681       35.18720
C         26.98645       77.63930       35.15320
O         27.42963       78.03160       34.09325
H         25.11285       77.17394       34.18474
H         25.60668       76.03330       35.49826
H         24.97971       77.68500       35.90606
N         27.71918       77.72204       36.29938
C         29.05344       78.31733       36.44050
C         29.14300       79.82029       36.02827
O         29.88668       80.05012       34.86020
C         30.19470       77.39595       35.93647
C         30.11346       76.93987       34.50319
O         30.19747       77.73260       33.58248
O         29.99340       75.62638       34.22979
H         27.26875       77.39359       37.16738
H         29.23637       78.37402       37.53612
H         30.17363       76.48021       36.56555
H         31.17406       77.89435       36.10832
N         27.84105       80.52365       36.05514
C         27.78040       81.99245       36.30051
C         29.10516       82.63441       36.69671
O         29.21217       83.08503       37.82972
C         27.08362       82.69799       35.10091
C         26.89293       84.23029       35.28874
C         25.72364       82.03382       34.80511
C         25.95098       84.63909       36.42929
H         27.25002       80.08446       36.79969
H         27.10224       82.14548       37.17378
H         27.72674       82.56307       34.20442
H         26.47705       84.64922       34.34558
H         27.87935       84.71245       35.45281
H         25.23473       82.53814       33.94849
H         25.84683       80.96055       34.55852
H         25.04583       82.08217       35.68090
H         24.92663       84.24395       36.26942
H         26.33089       84.29153       37.41060
H         25.87181       85.74591       36.46072
N         30.14946       82.72973       35.82706
C         31.42990       83.30736       36.20704
C         31.39667       84.83379       36.12664
O         31.63742       85.44289       37.15969
C         32.60240       82.64269       35.45212
C         32.69755       81.17164       35.77388
O         32.65440       80.34086       34.88183
O         32.85218       80.76398       37.04887
H         30.04179       82.36961       34.87069
H         31.63245       83.05122       37.27409
H         33.55363       83.11445       35.77866
H         32.50967       82.76373       34.35799
N         31.10264       85.56588       35.00664
C         30.77533       85.00910       33.70055
C         30.44106       86.07043       32.64879
O         30.35021       87.23759       33.00125
H         31.11785       86.59071       35.11820
H         29.88484       84.36155       33.80107
H         31.63978       84.43299       33.36847
N         30.19677       85.78297       31.32765
C         30.32935       84.48913       30.66512
C         29.47379       83.42644       31.33107
O         30.02415       82.57803       32.01942
C         31.82707       84.12133       30.50396
C         32.03771       82.86330       29.70868
O         31.60117       82.76686       28.57297
O         32.74438       81.84760       30.23733
H         29.91022       86.56759       30.72071
H         29.97731       84.59246       29.61586
H         32.34308       84.00357       31.46885
H         32.32846       84.95152       29.96166
N         28.12384       83.33556       31.14991
C         27.31794       84.13017       30.23689
C         27.04877       85.52986       30.71121
O         27.47772       85.90638       31.79220
H         27.64208       82.56914       31.62380
H         26.31834       83.65030       30.14778
H         27.77390       84.12373       29.22563
N         26.26634       86.34465       29.94595
C         25.89575       87.69694       30.34158
C         24.42634       87.78605       30.75340
O         24.05711       88.80431       31.32138
C         26.35237       88.72982       29.28451
C         25.82015       88.53443       27.85232
C         24.32820       88.61967       27.76879
N         23.67736       89.72683       28.18723
O         23.69897       87.67996       27.31241
H         25.88709       85.96812       29.06364
H         26.44186       87.96438       31.27291
H         27.46110       88.67740       29.21913
H         26.09783       89.74932       29.64464
H         26.16716       87.56038       27.44472
H         26.24560       89.33204       27.20660
H         24.18770       90.53555       28.56734
H         22.65598       89.77279       28.14072
N         23.56749       86.72843       30.61418
C         22.28364       86.63924       31.31399
C         21.06031       86.50209       30.40628
O         19.96966       86.43439       30.95870
C         22.34688       85.46260       32.34381
C         23.35599       85.76350       33.46418
C         22.69066       84.10587       31.69974
H         23.87180       85.90177       30.08662
H         22.09471       87.56738       31.89703
H         21.35105       85.36608       32.82966
H         23.35879       84.94084       34.21160
H         24.38528       85.87613       33.06216
H         23.07185       86.69988       33.98989
H         23.72387       84.09908       31.29279
H         22.63989       83.30299       32.46529
H         21.98045       83.85692       30.88481
N         21.12375       86.47943       29.04216
C         19.93223       86.36185       28.19471
C         19.94719       85.10769       27.33244
O         18.98139       84.90731       26.60993
C         19.78859       87.58533       27.25690
C         19.59751       88.90089       27.96719
N         18.57213       89.09187       28.82783
O         20.35388       89.82641       27.72693
H         22.03924       86.54734       28.58497
H         19.01312       86.29248       28.81463
H         18.88962       87.44454       26.61802
H         20.67559       87.64301       26.58641
H         17.90235       88.33817       29.03328
H         18.44545       90.00627       29.28713
N         20.98320       84.21877       27.33592
C         21.01301       83.06301       26.43490
C         22.15743       82.11271       26.73104
O         23.07366       82.47777       27.44728
C         21.07468       83.52200       24.95122
C         22.02186       84.69264       24.72122
C         21.50562       85.89825       24.20952
C         23.39616       84.62309       25.02011
C         22.33580       87.00301       24.00705
C         24.22448       85.73322       24.82312
C         23.69890       86.92536       24.31692
O         24.50916       87.98823       24.13816
H         21.76708       84.36932       27.98337
H         20.09633       82.45823       26.61410
H         20.05417       83.83820       24.65200
H         21.33175       82.67138       24.28490
H         20.45403       85.98915       23.96822
H         23.83870       83.72582       25.41595
H         21.91545       87.92009       23.61415
H         25.27700       85.66848       25.07028
H         24.18121       88.83317       23.79814
N         22.14018       80.86034       26.16628
C         23.12299       79.78966       26.35108
C         23.01085       79.10375       27.71030
O         22.81880       77.89572       27.74060
C         24.56285       80.23654       26.02737
C         24.66937       80.75894       24.58507
C         26.08431       81.11104       24.23300
O         26.95160       80.25176       24.24120
O         26.39985       82.37251       23.88312
H         21.36031       80.64072       25.52869
H         22.88330       78.99178       25.60981
H         25.22908       79.35150       26.13435
H         24.91662       81.00964       26.74112
H         24.02808       81.65505       24.46450
H         24.31175       79.98403       23.87335
N         23.12564       79.79524       28.87390
C         23.10589       79.19255       30.19918
C         21.78911       78.51071       30.53905
O         21.73942       77.83700       31.56012
C         23.34314       80.27716       31.27353
C         24.58608       81.15295       31.07221
C         25.85486       80.38746       31.17417
O         26.21224       79.59532       30.31790
O         26.59772       80.63043       32.25515
H         23.27342       80.79285       28.82100
H         23.91945       78.43570       30.23551
H         23.40564       79.79995       32.27783
H         22.46837       80.96499       31.27749
H         24.57184       81.89016       31.89714
H         24.58685       81.75198       30.14146
N         20.66843       78.66994       29.78046
C         19.41380       78.04821       30.14066
H         18.62893       78.32744       29.40684
H         19.52673       76.94368       30.14568
H         19.09615       78.39365       31.14826
H         20.68176       79.26712       28.94221
Ca        28.58433       80.06151       33.02188
O         31.55601       79.62394       31.91965
H         31.81948       79.51274       30.97234
H         32.25525       80.20704       32.30702
O         28.10750       77.02059       31.19080
H         28.08940       77.86199       30.67019
H         27.16030       76.73557       31.23752
O         28.96611       80.49019       29.59480
H         28.79522       80.41871       28.62230
H         29.94408       80.62141       29.66616

Ca 1.0



