%chk=apoCaM-CA-Ng.loop1.water5.frame373.chk
%nprocshared=20
%mem=10GB
%nosave
#b3lyp/svp scf=(tight,noincore,xqc) Test 
#IOP(5/87=12) Density=Current Pop=(MK,readradii) iop(6/33=2) iop(6/42=6)

apoCaM-CA-Ng.loop1.water5.frame373 

   0  1 
C         21.72769       92.55086       14.16664
C         22.28401       91.22983       13.72163
O         22.83998       91.14809       12.63557
H         20.63796       92.45222       14.35508
H         22.22981       92.86989       15.10468
H         21.88912       93.33082       13.39269
N         22.18635       90.14680       14.54171
C         22.76048       88.83803       14.23070
C         21.94238       88.00242       13.22992
O         22.01660       86.78639       13.31272
C         23.04600       88.04287       15.53714
C         21.81229       87.60705       16.29311
O         21.59740       86.41866       16.47005
O         20.96143       88.51111       16.81385
H         21.78521       90.31172       15.47523
H         23.76445       89.00340       13.80163
H         23.68133       88.65695       16.21198
H         23.63556       87.13651       15.27338
N         21.12259       88.55354       12.28498
C         20.24007       87.76214       11.42431
C         20.47474       88.11006        9.94633
O         20.37732       89.29308        9.64885
C         18.79880       88.09889       11.87280
C         17.74412       87.14379       11.31380
C         16.35859       87.44615       11.89457
C         15.35108       86.36333       11.48700
N         14.03419       86.63102       12.06312
H         21.03667       89.57422       12.21739
H         20.38680       86.68496       11.60937
H         18.54942       89.15564       11.62898
H         18.76376       87.99088       12.98117
H         18.02292       86.11696       11.62766
H         17.71107       87.20544       10.20597
H         16.01734       88.44537       11.54604
H         16.42011       87.45778       13.00547
H         15.71101       85.37534       11.85454
H         15.27090       86.31662       10.37874
H         13.38243       85.85696       11.80012
H         14.09891       86.67541       13.10654
H         13.65867       87.53424       11.69387
N         20.75831       87.22114        8.92921
C         20.89198       85.76224        8.98782
C         19.62359       85.10227        9.49403
O         19.63715       84.53061       10.57546
C         22.15858       85.31674        9.74394
C         23.44012       85.58935        9.00432
O         23.44550       86.14426        7.91955
O         24.59972       85.14867        9.51731
H         20.86456       87.62772        7.98633
H         21.03330       85.35938        7.96103
H         22.12298       84.21396        9.84367
H         22.19704       85.77133       10.74740
N         18.47091       85.09044        8.76591
C         18.37202       85.58547        7.39444
C         16.94945       85.53452        6.86129
O         16.03608       85.23961        7.61851
H         17.64947       84.65137        9.20795
H         19.03177       84.96346        6.75543
H         18.70149       86.64379        7.34273
N         16.63573       85.85952        5.57430
C         17.59569       86.16390        4.51787
C         18.38225       84.92751        4.09409
O         19.59445       85.01062        3.97063
C         16.90074       86.79522        3.28037
C         15.93192       85.90585        2.53795
O         14.80977       85.45606        3.13025
O         16.14560       85.61739        1.37115
H         15.63225       85.89746        5.34552
H         18.29305       86.95587        4.87380
H         17.70002       87.10696        2.57025
H         16.36397       87.71626        3.59506
N         17.74227       83.75028        3.83338
C         18.38985       82.56693        3.28468
C         18.38838       81.42501        4.27456
O         17.35288       81.13999        4.85973
H         16.72824       83.68821        4.00654
H         19.43044       82.77678        2.95607
H         17.81839       82.26475        2.38132
N         19.52407       80.69213        4.47867
C         19.60260       79.60322        5.45107
C         19.48105       80.18685        6.84891
O         20.21859       81.10310        7.18620
C         20.86970       78.71824        5.27103
C         22.22094       79.42981        5.41241
O         20.81524       78.03147        4.04336
H         20.35136       80.91493        3.90780
H         18.75670       78.90193        5.26826
H         20.82971       77.94133        6.06666
H         20.82775       78.70068        3.31134
H         22.32098       79.89789        6.41119
H         23.03511       78.68133        5.30215
H         22.35923       80.19936        4.62668
N         18.50000       79.74676        7.68476
C         18.14650       80.42153        8.93380
C         19.22577       80.40592       10.01340
O         18.99087       81.03155       11.03869
C         16.76326       79.91449        9.47707
C         16.70679       78.42923        9.93688
C         15.66504       80.15315        8.41716
C         17.45527       78.12993       11.23797
H         17.91377       78.96833        7.35394
H         17.99169       81.49555        8.68154
H         16.47812       80.54813       10.34632
H         17.05166       77.74604        9.13247
H         15.64460       78.18045       10.15444
H         14.66643       79.90693        8.83608
H         15.64869       81.21962        8.10788
H         15.80583       79.52672        7.51257
H         17.08464       78.79219       12.05043
H         17.26486       77.07749       11.53617
H         18.54802       78.24133       11.13523
N         20.41051       79.72997        9.89368
C         21.39766       79.71123       10.97641
C         21.87372       81.12188       11.28005
O         22.48905       81.74273       10.42452
C         22.61982       78.81581       10.64052
C         22.23505       77.34566       10.45724
O         23.55764       78.88389       11.68803
H         20.60437       79.19938        9.03424
H         20.91006       79.28720       11.88297
H         23.08210       79.16429        9.68470
H         24.26880       79.52024       11.41230
H         21.51950       77.20969        9.62205
H         23.14606       76.75167       10.22881
H         21.78155       76.94855       11.39057
N         21.60761       81.68991       12.49246
C         22.04108       83.03804       12.84834
C         23.55316       83.13865       12.90827
O         24.20526       82.15448       13.23209
C         21.42566       83.51549       14.19082
C         21.85544       82.68661       15.40854
O         20.02388       83.50045       14.10351
H         21.04731       81.15069       13.16821
H         21.66337       83.73237       12.07257
H         21.77246       84.55288       14.39568
H         19.75195       84.34731       13.66083
H         21.39283       83.11090       16.32486
H         21.53320       81.62978       15.31803
H         22.95703       82.71851       15.53988
N         24.17742       84.32004       12.63028
C         25.61444       84.50355       12.77638
C         26.09155       85.70057       11.96180
O         26.93086       85.50358       11.09358
C         25.96661       84.58045       14.27962
C         27.48236       84.57650       14.52998
C         27.86736       84.42474       16.01573
C         27.42477       83.07214       16.61377
N         27.97197       82.87709       17.95554
H         23.60770       85.11507       12.31947
H         26.12199       83.60953       12.34653
H         25.53382       83.67929       14.75142
H         25.49883       85.46977       14.75592
H         27.91153       85.52426       14.13857
H         27.94464       83.73167       13.97491
H         27.45065       85.26222       16.61687
H         28.97648       84.47818       16.06848
H         27.78317       82.24497       15.96139
H         26.31708       83.01751       16.67272
H         27.64085       81.95661       18.32667
H         29.01710       82.86349       17.91635
H         27.64859       83.63811       18.59507
N         25.58144       86.95357       12.14818
C         25.96396       88.10564       11.33008
C         26.64325       89.13520       12.20796
O         26.03275       89.62777       13.14566
C         24.71826       88.70484       10.61853
C         25.02209       89.98511        9.80870
C         25.98034       89.74920        8.67419
O         27.11729       90.18858        8.73560
O         25.57743       89.11884        7.55384
H         24.88442       87.09545       12.89337
H         26.67659       87.79929       10.53413
H         23.95902       88.96711       11.38241
H         24.26747       87.94613        9.94985
H         25.44493       90.74295       10.50107
H         24.08509       90.41513        9.39380
N         27.91935       89.52573       11.94470
C         28.59122       90.52746       12.74116
H         29.61646       90.69619       12.34986
H         28.02992       91.48531       12.69373
H         28.65994       90.18882       13.79646
H         28.42986       89.10995       11.15102
Ca        23.38487       88.77677        7.12107
O         24.49108       91.02732        4.90877
H         25.46309       91.13538        4.75385
H         24.36691       91.24744        5.86614
O         22.12128       86.24830        5.29714
H         21.28573       86.73416        5.08425
H         21.82906       85.32824        5.51863
O         26.73519       86.36483        7.05649
H         26.38117       85.49261        7.36239
H         27.03676       86.81272        7.88628
O         25.49789       88.23093        3.45148
H         25.59278       87.41398        2.90005
H         26.24823       88.81080        3.16626
O         24.89009       85.17571        4.66011
H         25.14312       84.50742        5.34513
H         24.27742       84.68850        4.05379

Ca 1.0



