%chk=apoCaM-CA-Ng.loop1.water2.frame899.chk
%nprocshared=20
%mem=10GB
%nosave
#b3lyp/svp scf=(tight,noincore,xqc) Test 
#IOP(5/87=12) Density=Current Pop=(MK,readradii) iop(6/33=2) iop(6/42=6)

apoCaM-CA-Ng.loop1.water2.frame899 

   0  1 
C         23.77724       36.58513       43.53401
C         22.79032       37.53763       44.13705
O         23.15006       38.30430       45.01876
H         24.77642       36.69790       44.00387
H         23.42369       35.54260       43.68165
H         23.86431       36.78667       42.44540
N         21.50535       37.52879       43.69655
C         20.45891       38.40113       44.20816
C         19.39849       37.56402       44.88729
O         18.75070       36.76821       44.23203
C         19.88213       39.31572       43.08475
C         20.16847       38.88544       41.64875
O         19.68748       37.75745       41.07351
O         20.90294       39.59281       40.97681
H         21.24998       36.84801       42.96505
H         20.85846       39.07867       44.99574
H         20.41072       40.29011       43.19895
H         18.80818       39.54688       43.26029
N         19.18079       37.67836       46.23066
C         18.15627       36.90804       46.92271
C         16.79571       37.32933       46.40963
O         16.47233       38.50716       46.48701
C         18.25730       37.12031       48.45290
C         17.25610       36.29112       49.28758
C         17.43658       34.77187       49.12130
C         16.49012       33.99053       50.04350
N         16.65311       32.54809       49.85750
H         19.76800       38.32526       46.77985
H         18.34417       35.83259       46.72167
H         18.09975       38.19672       48.68535
H         19.28517       36.85144       48.78239
H         16.21409       36.57500       49.02443
H         17.42144       36.54950       50.35688
H         18.48604       34.49586       49.36462
H         17.21958       34.47809       48.07405
H         15.43640       34.26980       49.82075
H         16.70658       34.25009       51.10390
H         17.63591       32.26397       50.07585
H         16.00357       32.04240       50.50225
H         16.42146       32.28460       48.87197
N         15.93870       36.41179       45.88468
C         14.62230       36.77511       45.37351
C         13.72107       35.56487       45.19500
O         14.19389       34.52919       44.74868
C         14.67132       37.61493       44.07829
C         15.48410       37.07268       42.94368
O         16.29084       36.00651       43.07428
O         15.52950       37.71680       41.90768
H         16.21936       35.41934       45.89579
H         14.15122       37.42041       46.13006
H         15.10234       38.61117       44.30935
H         13.63688       37.78104       43.71201
N         12.37970       35.62079       45.45981
C         11.67030       36.82895       45.85311
C         11.66513       37.04225       47.35137
O         12.71547       37.08455       47.97473
H         11.80757       34.79307       45.24332
H         10.62471       36.75583       45.48467
H         12.08170       37.71575       45.33440
N         10.47925       37.22994       47.98787
C         10.33830       37.48090       49.41492
C          9.47451       36.39204       49.99668
O          8.40565       36.12980       49.45901
C          9.69752       38.85982       49.64199
C         10.59618       39.96193       49.15122
O         11.82672       40.11525       49.67871
O         10.21345       40.72840       48.28221
H          9.61361       37.21502       47.42599
H         11.32185       37.47927       49.93651
H          9.53146       39.01503       50.73019
H          8.71262       38.91049       49.12686
N          9.87158       35.70375       51.10253
C          9.10669       34.58226       51.60903
C          9.29218       33.34746       50.75080
O          8.57622       32.38253       50.97765
H         10.73122       35.98008       51.60033
H          8.03464       34.87273       51.67549
H          9.44702       34.31845       52.63283
N         10.28333       33.26857       49.80818
C         10.54805       32.07222       49.02266
C         10.58478       32.42447       47.54632
O         11.46285       33.16916       47.13633
C         11.88286       31.43503       49.48994
C         12.16788       30.10933       48.78161
O         12.96613       32.30608       49.27438
H         10.92602       34.06273       49.67543
H          9.75017       31.31841       49.20250
H         11.80045       31.19713       50.57733
H         13.02236       32.90815       50.06141
H         11.34038       29.39073       48.96296
H         12.28548       30.26254       47.68901
H         13.10873       29.66988       49.17585
N          9.65075       31.92546       46.69051
C          9.67277       32.17539       45.24654
C          8.36530       31.75846       44.58148
O          7.90297       32.49146       43.71817
C         10.91367       31.51159       44.55477
C         11.03294       31.84966       43.04244
C         10.90567       29.98197       44.71870
C         11.22701       33.33769       42.74662
H          8.88936       31.37414       47.10724
H          9.74747       33.27541       45.11424
H         11.83732       31.88448       45.04620
H         10.13984       31.48346       42.49253
H         11.92218       31.32485       42.62812
H         11.83335       29.54796       44.28669
H         10.86566       29.69958       45.79005
H         10.04041       29.52796       44.19307
H         12.15248       33.70319       43.23297
H         11.33589       33.48610       41.65184
H         10.36108       33.94207       43.08258
N          7.69081       30.62936       44.95288
C          6.43438       30.21303       44.34297
C          6.55981       28.78086       43.84500
O          7.55496       28.11869       44.10519
C          5.27747       30.39628       45.36418
C          5.08624       31.88204       45.70164
O          4.06859       29.91001       44.84116
H          8.05627       30.03798       45.71219
H          6.20799       30.84023       43.45219
H          5.53836       29.82901       46.28865
H          3.47979       29.70119       45.61335
H          4.25931       32.00399       46.43242
H          6.00641       32.31830       46.14126
H          4.82346       32.44984       44.78147
N          5.58116       28.26747       43.05614
C          5.60662       26.93610       42.46870
C          5.73433       27.06861       40.96398
O          6.61668       26.45190       40.38284
C          4.32517       26.15922       42.87389
C          4.31668       24.73788       42.29311
O          3.17503       26.84568       42.44846
H          4.78753       28.87834       42.82275
H          6.47738       26.34961       42.83960
H          4.32185       26.08923       43.98662
H          2.40864       26.47718       42.96075
H          4.30765       24.76428       41.18227
H          5.21081       24.17553       42.63508
H          3.40882       24.19576       42.63250
N          4.87423       27.86676       40.27553
C          4.84977       27.99944       38.82724
C          5.17139       29.42442       38.41978
O          5.22212       30.30311       39.27114
C          3.48355       27.48451       38.30191
C          2.25459       28.21388       38.89979
C          0.94882       27.44757       38.65640
C         -0.21314       28.10903       39.42011
N         -1.43065       27.30461       39.33413
H          4.19878       28.41737       40.81367
H          5.64481       27.36075       38.38340
H          3.42903       26.41558       38.60579
H          3.44193       27.52269       37.19221
H          2.19604       29.25519       38.51544
H          2.33244       28.25545       39.99843
H          1.07406       26.41634       39.05615
H          0.72271       27.38562       37.57086
H         -0.40043       29.12652       39.01225
H          0.05850       28.21177       40.49606
H         -2.19233       27.78120       39.86953
H         -1.72501       27.19638       38.33751
H         -1.26550       26.36325       39.76085
N          5.48909       29.70537       37.12425
C          5.90701       31.02973       36.67550
C          7.10606       31.54295       37.48171
O          6.97371       32.61888       38.04767
C          6.16603       31.03564       35.14946
C          6.53519       32.43488       34.62067
C          6.74713       32.46787       33.12918
O          7.07129       33.63240       32.53621
O          6.63276       31.46065       32.44738
H          5.46660       28.93398       36.43872
H          5.05827       31.73162       36.84393
H          5.23514       30.70076       34.64098
H          6.96318       30.32226       34.87533
H          7.47341       32.78163       35.10413
H          5.72010       33.14673       34.87245
N          8.29067       30.87840       37.63741
C          8.60223       29.57169       37.09947
H          9.61894       29.26930       37.43049
H          7.88856       28.81315       37.47843
H          8.61525       29.58513       35.99650
H          9.01993       31.32509       38.21602
Ca        18.02981       36.37259       41.70710
O         17.61711       32.77281       41.69159
H         18.26864       32.77223       40.94584
H         16.85595       32.23526       41.35637
O         20.31599       34.29287       43.23261
H         19.66018       34.23737       43.97221
H         20.66629       33.37156       43.14267

Ca 1.0



