%chk=apoCaM-CA-Ng.loop2.water3.frame1023.chk
%nprocshared=20
%mem=10GB
%nosave
#b3lyp/svp scf=(tight,noincore,xqc) Test 
#IOP(5/87=12) Density=Current Pop=(MK,readradii) iop(6/33=2) iop(6/42=6)

apoCaM-CA-Ng.loop2.water3.frame1023 

   -2  1 
C         41.19229       66.67368       66.16417
C         39.71132       66.41285       66.02433
O         39.31767       66.04858       64.92585
H         41.49406       67.47290       65.45649
H         41.53745       66.96030       67.16986
H         41.74053       65.74395       65.90058
N         38.80165       66.51285       67.04141
C         39.07617       66.91189       68.41852
C         38.03233       67.94450       68.87648
O         37.77105       68.87501       68.12692
C         39.21258       65.61071       69.26350
C         37.98040       64.74404       69.16906
O         37.98300       63.61360       68.43824
O         36.92668       65.11654       69.65076
H         37.83879       66.21670       66.83252
H         40.03614       67.44790       68.48428
H         39.47481       65.82026       70.32108
H         40.05762       65.03566       68.82621
N         37.40887       67.85678       70.08892
C         36.37221       68.75687       70.58805
C         35.11254       68.75027       69.72210
O         34.48882       69.79000       69.55785
C         36.92002       70.16700       70.85994
H         37.67389       67.10176       70.73288
H         36.05859       68.35329       71.57736
H         37.79000       70.10836       71.54883
H         37.23755       70.66718       69.92239
H         36.14222       70.79206       71.35051
N         34.65752       67.58549       69.17577
C         33.38252       67.43671       68.47276
C         32.57292       66.30640       69.10649
O         33.06278       65.64275       70.01182
C         33.61120       67.17729       66.96383
C         34.48853       65.98475       66.70670
O         35.53804       66.13238       66.10512
O         34.17687       64.76951       67.19726
H         35.23568       66.74461       69.27873
H         32.78568       68.37106       68.55712
H         34.09579       68.07780       66.52230
H         32.63896       67.03985       66.44735
N         31.30736       66.03508       68.67557
C         30.48884       64.96569       69.23390
C         30.99473       63.58134       68.87689
O         31.97784       63.45895       68.16142
H         30.88815       66.63474       67.94960
H         29.45879       65.04960       68.82858
H         30.43894       65.08449       70.33813
N         30.35069       62.47722       69.35984
C         30.78710       61.10715       69.08530
C         29.66739       60.26277       68.48937
O         28.53465       60.71646       68.40053
C         31.25495       60.45525       70.40191
C         32.38313       61.22610       71.03632
N         32.23745       61.77316       72.26576
O         33.43903       61.35578       70.43543
H         29.54093       62.61510       69.98440
H         31.63309       61.10557       68.36356
H         31.60825       59.41785       70.22161
H         30.39100       60.40252       71.10103
H         31.35437       61.67571       72.78765
H         33.00865       62.29957       72.69997
N         29.93491       58.98459       68.08762
C         28.93760       58.03080       67.61934
C         28.23309       58.44241       66.34604
O         28.48797       59.52689       65.84195
H         30.90508       58.64206       68.15740
H         28.18451       57.86781       68.41928
H         29.45713       57.06884       67.41780
N         27.32703       57.62951       65.72594
C         26.94919       56.27910       66.15518
C         27.35465       55.23891       65.10003
O         26.97567       54.08258       65.22784
C         25.41944       56.22829       66.40327
C         24.98293       57.23297       67.47664
O         24.72827       56.48625       65.20718
H         26.88554       57.98393       64.86141
H         27.44437       55.99145       67.10491
H         25.17082       55.20226       66.76559
H         23.80838       56.12983       65.32382
H         25.52081       57.04103       68.42876
H         25.18620       58.27421       67.14770
H         23.89213       57.13413       67.66264
N         28.11547       55.58977       64.02230
C         28.43517       54.70478       62.90263
C         29.34822       53.56376       63.37230
O         30.35160       53.88147       63.99638
C         29.15334       55.51018       61.76671
C         28.28982       56.71450       61.28189
C         29.47193       54.58302       60.57295
C         29.04487       57.65539       60.34050
H         28.47561       56.54884       63.98255
H         27.47985       54.36412       62.47193
H         30.10827       55.90541       62.17973
H         27.98053       57.35708       62.12696
H         27.35828       56.34747       60.80013
H         30.03220       55.11399       59.78055
H         30.11626       53.73765       60.88276
H         28.53266       54.17404       60.14006
H         29.96025       58.03728       60.84122
H         29.32479       57.15984       59.39158
H         28.39765       58.52295       60.09220
N         29.16832       52.23399       63.08262
C         28.08655       51.64694       62.29225
C         28.59703       51.10028       60.95990
O         29.79356       51.08590       60.71139
C         27.33478       50.58799       63.13005
C         28.22079       49.48517       63.64765
O         28.35457       49.30154       64.97582
O         28.81221       48.74787       62.87555
H         29.89493       51.58279       63.42082
H         27.34420       52.40332       62.00809
H         26.51216       50.13785       62.53500
H         26.87433       51.10352       64.00093
N         27.68749       50.71392       60.01805
C         28.01272       50.29719       58.65323
C         26.70675       50.08154       57.88635
O         25.93705       49.23429       58.31781
C         28.81364       48.96637       58.61783
C         29.02969       48.51333       57.18311
C         28.35527       47.38055       56.68895
C         29.86476       49.24004       56.31566
C         28.49853       46.99704       55.35144
C         30.01042       48.84795       54.97947
C         29.32354       47.73110       54.49679
H         26.69145       50.79012       60.27334
H         28.62113       51.08965       58.17294
H         28.22443       48.19873       59.16654
H         29.79508       49.05359       59.12962
H         27.69776       46.80740       57.33018
H         30.39402       50.11533       56.66986
H         27.96211       46.13522       54.97463
H         30.64865       49.41512       54.31408
H         29.42783       47.43563       53.46012
N         26.38833       50.74275       56.72580
C         27.20616       51.72887       56.02906
C         27.35602       53.04410       56.76109
O         26.82633       53.19672       57.85435
C         26.44068       51.97420       54.71870
C         25.74906       50.64525       54.50329
C         25.25461       50.35703       55.91253
H         28.19233       51.27271       55.80591
H         25.62799       52.71886       54.89413
H         27.06821       52.33614       53.87654
H         24.95074       50.65574       53.73191
H         26.51800       49.88631       54.22986
H         24.39750       51.02139       56.16425
H         24.96059       49.29073       56.01870
N         28.05816       54.05894       56.18264
C         28.18034       55.38326       56.78024
C         29.29086       56.15707       56.06655
O         29.02239       57.19920       55.48583
C         26.79717       56.09323       56.71038
C         26.72814       57.40488       57.50670
C         25.35915       58.01672       57.40412
O         25.21921       59.13799       56.94248
O         24.27889       57.33462       57.83198
H         28.53200       53.87240       55.28375
H         28.48118       55.27566       57.84341
H         26.02015       55.42446       57.13473
H         26.53353       56.27587       55.64443
H         27.48148       58.13307       57.14294
H         26.93110       57.19156       58.57330
N         30.58386       55.71543       56.03132
C         31.07819       54.50137       56.65466
H         31.89243       54.75683       57.36289
H         30.30863       53.94558       57.22107
H         31.48437       53.82938       55.86906
H         31.27675       56.27917       55.51467
Ca        35.96506       63.42624       67.45577
O         36.55999       61.16789       69.84226
H         37.41074       61.23495       70.34450
H         36.15538       60.31862       70.15093
O         34.20544       60.95266       67.13278
H         34.56501       60.05762       67.35582
H         34.37355       61.05402       66.16216
O         35.51449       63.23006       71.93699
H         35.53021       62.46280       72.56310
H         35.23528       63.99976       72.49359

Ca 1.0



