%chk=apoCaM-CA-Ng.loop3.water4.frame219.chk
%nprocshared=20
%mem=10GB
%nosave
#b3lyp/svp scf=(tight,noincore,xqc) Test 
#IOP(5/87=12) Density=Current Pop=(MK,readradii) iop(6/33=2) iop(6/42=6)

apoCaM-CA-Ng.loop3.water4.frame219 

   0  1 
C         44.75077       33.69748       81.00466
C         46.04952       33.92905       81.71996
O         46.41547       35.07511       81.92238
H         43.92383       34.16829       81.57646
H         44.79707       34.14656       79.99083
H         44.53278       32.61306       80.90143
N         46.81099       32.87632       82.12580
C         48.07464       32.99757       82.84406
C         49.09395       33.80170       82.04633
O         49.72077       34.68993       82.61048
C         47.84905       33.59874       84.25719
C         46.85691       32.80647       85.05953
O         45.71715       33.38548       85.48342
O         47.08131       31.64018       85.33931
H         46.48452       31.92093       81.91396
H         48.48741       31.97159       82.96656
H         47.48008       34.64336       84.16699
H         48.80944       33.62894       84.81620
N         49.28686       33.57325       80.71148
C         50.25082       34.33707       79.92169
C         49.52070       35.33273       79.03531
O         49.69021       35.33949       77.82324
C         51.17951       33.39907       79.12391
C         51.89970       32.37860       80.01736
C         52.98343       31.63773       79.22392
C         53.69495       30.58985       80.08919
N         54.82499       30.00218       79.36949
H         48.70001       32.87421       80.23075
H         50.89599       34.94975       80.58867
H         51.93384       34.03638       78.61173
H         50.60119       32.84607       78.35001
H         51.15727       31.65657       80.42510
H         52.38821       32.90571       80.86529
H         53.72849       32.38700       78.87696
H         52.54097       31.13722       78.33436
H         52.97212       29.79132       80.37046
H         54.07352       31.06507       81.02102
H         55.53126       30.74407       79.15493
H         55.27638       29.27649       79.97167
H         54.50174       29.55719       78.48020
N         48.66995       36.22117       79.61590
C         47.91266       37.22825       78.88694
C         48.82024       38.41001       78.56944
O         49.51196       38.88032       79.46175
C         46.68630       37.61864       79.73451
C         45.69559       38.44093       78.97153
O         46.01306       39.67886       78.57406
O         44.58301       37.99898       78.73344
H         48.52741       36.15518       80.63500
H         47.49204       36.77341       77.96082
H         46.98688       38.13995       80.66878
H         46.16752       36.67744       80.01300
N         48.87669       38.93435       77.31355
C         49.80321       39.98560       76.91088
C         49.73079       41.26042       77.73316
O         50.77063       41.87715       77.91606
H         48.25424       38.54912       76.58906
H         49.63392       40.23750       75.84101
H         50.83955       39.58957       76.98333
N         48.55472       41.73911       78.22989
C         48.45622       42.96509       79.02509
C         47.86773       42.72314       80.42124
O         47.63826       43.69139       81.13406
C         47.69739       44.04630       78.23189
C         46.23061       43.78294       78.03679
N         45.32051       44.67211       78.48919
O         45.85614       42.78363       77.44507
H         47.69589       41.22055       78.02479
H         49.46680       43.39926       79.18585
H         48.17645       44.15955       77.23525
H         47.82067       45.01442       78.76463
H         45.60693       45.53345       78.97660
H         44.32308       44.50438       78.33616
N         47.67398       41.46378       80.91239
C         47.21251       41.17977       82.26303
C         45.73729       41.43600       82.43930
O         45.35676       42.18970       83.32229
H         47.94136       40.65285       80.34188
H         47.82400       41.74055       83.00463
H         47.35892       40.09658       82.46568
N         44.84683       40.78851       81.63804
C         43.39708       40.87042       81.77881
C         42.79615       41.60381       80.59319
O         43.51185       41.94062       79.66165
C         42.82610       39.43522       81.87423
C         43.34069       38.68887       83.08366
C         42.96419       39.09595       84.37380
C         44.18689       37.57411       82.93788
C         43.42525       38.40434       85.49823
C         44.65339       36.89030       84.06697
C         44.27354       37.30358       85.35032
O         44.71575       36.65292       86.44565
H         45.21803       40.19187       80.89070
H         43.12643       41.45418       82.68469
H         43.11285       38.89324       80.94548
H         41.71596       39.44309       81.91770
H         42.30452       39.94324       84.50819
H         44.49167       37.23771       81.95476
H         43.12240       38.72436       86.48683
H         45.30787       36.03877       83.95125
H         45.31331       35.89394       86.38870
N         41.46642       41.92210       80.59223
C         40.83599       42.67851       79.51119
C         41.51335       44.03457       79.38694
O         41.99318       44.34654       78.30872
C         39.29507       42.83614       79.71869
C         38.54663       41.47824       79.84797
C         38.66253       43.66107       78.57631
C         38.62303       40.56947       78.61473
H         40.90143       41.64003       81.40452
H         40.97300       42.12354       78.56364
H         39.12563       43.39251       80.66711
H         37.47332       41.68669       80.05095
H         38.93066       40.90999       80.71847
H         38.83189       43.18832       77.58752
H         37.57167       43.78336       78.74297
H         39.09740       44.67061       78.52147
H         38.05038       39.63905       78.80945
H         38.17653       41.05353       77.72281
H         39.66866       40.28563       78.39195
N         41.59825       44.88843       80.44722
C         42.27522       46.18484       80.37696
C         41.66450       47.08680       79.32082
O         42.40192       47.78626       78.64243
C         42.27370       46.90029       81.73679
O         40.97385       47.24671       82.13569
H         41.18454       44.58859       81.34337
H         43.34361       46.01132       80.11884
H         42.87375       47.83343       81.66113
H         42.77288       46.27078       82.50928
H         40.59398       46.45912       82.60283
N         40.32104       47.05697       79.08693
C         39.64001       47.81493       78.04541
C         40.34416       47.67785       76.70232
O         40.67120       48.69065       76.09232
C         39.48357       49.27698       78.48068
H         39.74194       46.42316       79.65361
H         38.61186       47.40006       77.94394
H         40.47426       49.76265       78.60425
H         38.89458       49.83902       77.72398
H         38.93861       49.32442       79.44750
N         40.64873       46.45149       76.19090
C         41.40088       46.30100       74.94977
C         41.03096       45.04135       74.19834
O         40.38705       44.16131       74.75829
C         42.90394       46.30088       75.25336
H         40.41922       45.61534       76.74855
H         41.15917       47.15464       74.27824
H         43.49785       46.22190       74.31863
H         43.19073       47.24079       75.76999
H         43.16379       45.44424       75.91318
N         41.40069       44.90734       72.88830
C         41.16620       43.72012       72.06755
C         39.68587       43.37506       71.89775
O         39.40722       42.35437       71.28301
C         41.94733       42.52410       72.64772
C         43.45209       42.82465       72.77223
C         44.12104       41.71879       73.51937
O         44.64620       41.97880       74.72795
O         44.11761       40.57803       73.08593
H         41.91007       45.68705       72.44267
H         41.57525       43.90453       71.04925
H         41.81538       41.62747       72.00196
H         41.53440       42.27809       73.64494
H         43.59973       43.75523       73.36034
H         43.91716       42.96344       71.77271
N         38.68366       44.16511       72.38800
C         37.27779       43.83204       72.28114
H         36.75342       44.62778       71.71320
H         37.10583       42.85981       71.77451
H         36.84149       43.77262       73.30104
H         38.89675       45.05286       72.85914
Ca        44.95047       40.29423       76.17095
O         42.01436       39.11958       77.78920
H         41.69590       38.90198       78.70090
H         41.70900       38.35843       77.23502
O         43.10972       38.24711       74.97956
H         42.60539       38.92394       74.46241
H         43.25007       37.49985       74.34629
O         46.14075       38.28671       74.63174
H         46.36052       37.60586       75.31612
H         46.96085       38.83490       74.54579
O         42.47771       42.01258       76.62305
H         42.90672       42.87396       76.39269
H         42.01842       41.72926       75.79540

Ca 1.0



