%chk=apoCaM-CA-Ng.loop1.water3.frame1151.chk
%nprocshared=20
%mem=10GB
%nosave
#b3lyp/svp scf=(tight,noincore,xqc) Test 
#IOP(5/87=12) Density=Current Pop=(MK,readradii) iop(6/33=2) iop(6/42=6)

apoCaM-CA-Ng.loop1.water3.frame1151 

   0  1 
C         71.08743       25.66773      107.26009
C         72.55442       25.41553      107.45752
O         73.33423       26.33471      107.26953
H         70.48675       24.75347      107.44987
H         70.74900       26.46448      107.95489
H         70.90575       25.99540      106.21474
N         73.00265       24.18835      107.84831
C         74.41085       23.86154      108.08945
C         75.24972       23.69659      106.81557
O         76.32181       23.11214      106.90545
C         74.53298       22.59891      108.97997
C         74.12222       21.31379      108.30657
O         72.85809       21.12560      107.88537
O         74.93966       20.41887      108.16078
H         72.28931       23.47740      108.05993
H         74.86121       24.66144      108.71190
H         73.93402       22.74223      109.90474
H         75.59724       22.50436      109.29575
N         74.85795       24.19018      105.60549
C         75.61501       23.98749      104.37321
C         77.07695       24.41929      104.52393
O         77.92581       23.58463      104.24249
C         74.88628       24.57576      103.13254
C         73.48968       23.92182      102.98180
C         72.76557       24.25751      101.67459
C         71.39530       23.55116      101.65759
N         70.68946       23.76722      100.39683
H         73.99157       24.72826      105.54456
H         75.64428       22.89036      104.17923
H         75.49037       24.32471      102.23284
H         74.78815       25.68038      103.18497
H         72.83241       24.22873      103.82063
H         73.60987       22.81680      103.01817
H         73.37840       23.90018      100.81873
H         72.62071       25.35585      101.58332
H         70.77197       23.93289      102.49795
H         71.53663       22.45639      101.80377
H         70.52830       24.78812      100.24142
H         71.24334       23.36630       99.60558
H         69.76484       23.27924      100.43960
N         77.50409       25.60280      105.06121
C         76.66604       26.71456      105.49174
C         76.55320       26.76179      107.01547
O         77.13798       25.93642      107.70295
C         77.24936       28.02885      104.91897
C         78.58026       28.35138      105.54624
O         78.64602       28.59470      106.86888
O         79.59346       28.35743      104.87407
H         78.52058       25.69680      105.21918
H         75.64114       26.59233      105.09477
H         76.56481       28.88056      105.10484
H         77.35820       27.92057      103.81673
N         75.77495       27.71174      107.60043
C         75.49735       27.79978      109.02667
C         76.67592       28.15953      109.90487
O         77.79290       28.28933      109.43405
H         75.27863       28.37396      106.98803
H         75.05282       26.85036      109.38433
H         74.74075       28.60060      109.16906
N         76.43730       28.39777      111.22766
C         77.43896       28.85310      112.19879
C         76.75078       29.44477      113.44358
O         75.61209       29.09236      113.71661
C         78.36233       27.69170      112.65017
C         79.29063       27.20324      111.58016
O         80.21136       28.03656      111.05819
O         79.24297       26.04281      111.20613
H         75.45188       28.33459      111.52143
H         78.01612       29.66720      111.72223
H         77.73029       26.85744      113.02700
H         79.01078       28.00638      113.48936
N         77.36221       30.33696      114.28493
C         78.69630       30.88189      114.09518
C         78.79158       31.79515      112.89521
O         77.77727       32.20379      112.35115
H         76.84625       30.64244      115.12534
H         79.42235       30.05469      114.00503
H         78.99640       31.47658      114.98507
N         80.01884       32.13769      112.42163
C         80.24260       32.97639      111.24545
C         79.61952       32.35945      109.99888
O         79.87619       31.20211      109.70560
C         81.76021       33.18556      111.00912
C         82.40467       33.98513      112.14605
O         81.96977       33.89704      109.81411
H         80.83669       31.75298      112.91874
H         79.79478       33.98054      111.41682
H         82.27078       32.19535      110.95781
H         82.06006       33.22744      109.08585
H         82.29673       33.47387      113.12386
H         83.48839       34.11484      111.94238
H         81.93649       34.99071      112.21707
N         78.82451       33.12951      109.19811
C         78.19352       32.72701      107.94169
C         79.21468       32.35681      106.86352
O         80.00259       31.44339      107.05430
C         77.13743       31.59460      108.11346
C         76.17310       31.81332      109.30540
C         76.33321       31.42629      106.80689
C         75.40262       33.13540      109.30258
H         78.65630       34.10447      109.48959
H         77.62513       33.61377      107.58192
H         77.66122       30.63806      108.31584
H         76.75681       31.75940      110.23846
H         75.44283       30.97623      109.33825
H         75.80516       32.36500      106.53698
H         76.99859       31.15645      105.96145
H         75.57646       30.62580      106.91425
H         74.75157       33.17544      110.20159
H         76.09825       33.99780      109.35092
H         74.75900       33.22674      108.40533
N         79.17195       32.97282      105.64821
C         79.97410       32.53900      104.50138
C         81.46522       32.85214      104.64499
O         82.25520       32.31489      103.88175
C         79.39524       33.19476      103.21457
C         79.99475       32.66804      101.90946
O         79.56815       34.59108      103.26081
H         78.45144       33.69660      105.50566
H         79.84182       31.43685      104.41041
H         78.30846       32.93781      103.16478
H         78.70828       34.99308      103.55180
H         79.86200       31.56793      101.84117
H         79.47086       33.14040      101.05066
H         81.07010       32.92022      101.82241
N         81.90950       33.79589      105.51860
C         83.28783       34.28439      105.52804
C         84.26397       33.24568      106.06687
O         84.09542       32.81847      107.19958
C         83.35945       35.59051      106.36070
C         84.76525       36.18288      106.38208
O         82.49693       36.55011      105.80027
H         81.21727       34.26991      106.11618
H         83.57104       34.56348      104.48768
H         83.07406       35.37840      107.41980
H         81.66245       36.55510      106.33740
H         84.77313       37.12425      106.97040
H         85.45286       35.46951      106.86604
H         85.11811       36.39699      105.35028
N         85.34768       32.84561      105.32519
C         86.40059       31.95461      105.82260
C         85.81138       30.61072      106.19940
O         85.84911       30.22606      107.36088
C         87.17953       32.61745      106.98671
C         87.98269       33.84669      106.51565
C         88.73528       34.54553      107.66314
C         87.79612       35.27272      108.64330
N         88.54867       35.92132      109.71477
H         85.45576       33.21339      104.36794
H         87.14103       31.76180      105.01330
H         87.91218       31.88773      107.39797
H         86.47588       32.88132      107.79746
H         87.33533       34.58366      105.99963
H         88.73349       33.49224      105.77537
H         89.41253       35.30714      107.21860
H         89.35969       33.80081      108.20284
H         87.07286       34.56506      109.09865
H         87.23059       36.05142      108.08975
H         87.87963       36.42521      110.34148
H         89.06236       35.20367      110.27540
H         89.22344       36.61335      109.31565
N         85.23769       29.84422      105.23123
C         84.55045       28.58795      105.50365
C         83.08270       28.73612      105.13773
O         82.28570       28.63181      106.05454
C         85.21936       27.36035      104.84408
C         86.64668       27.13875      105.36321
C         87.24808       25.90275      104.75549
O         88.26444       25.97964      104.08405
O         86.67305       24.70091      104.95618
H         85.26576       30.20495      104.26971
H         84.58232       28.37443      106.59734
H         85.25564       27.43094      103.74407
H         84.61143       26.46383      105.10140
H         86.63331       27.01617      106.46798
H         87.27395       28.02173      105.11240
N         82.58463       28.99947      103.88984
C         83.31023       29.15394      102.64788
H         84.39557       29.04219      102.73256
H         82.94561       28.39256      101.92704
H         83.10487       30.16166      102.23196
H         81.56693       29.10875      103.79844
Ca        80.51605       28.81269      108.11177
O         80.67920       25.73690      108.26824
H         80.98675       25.43250      109.15862
H         79.70425       25.56855      108.27338
O         83.02440       27.45099      109.44621
H         83.86259       27.31181      108.93820
H         83.09026       26.83019      110.21453
O         82.97574       30.38877      109.15910
H         83.84168       30.66921      109.54853
H         83.06983       30.55821      108.18867

Ca 1.0



