%chk=apoCaM-CA-Ng.loop1.water3.frame1142.chk
%nprocshared=20
%mem=10GB
%nosave
#b3lyp/svp scf=(tight,noincore,xqc) Test 
#IOP(5/87=12) Density=Current Pop=(MK,readradii) iop(6/33=2) iop(6/42=6)

apoCaM-CA-Ng.loop1.water3.frame1142 

   0  1 
C         70.91883       45.02371       78.48999
C         72.22996       44.98662       79.20974
O         72.44230       45.82116       80.06888
H         70.30356       45.87819       78.84959
H         71.09038       45.14466       77.40056
H         70.36739       44.08153       78.68335
N         73.17485       44.06007       78.88634
C         74.48406       43.98019       79.53062
C         75.53596       44.49469       78.57134
O         76.43490       43.77532       78.15852
C         74.76905       42.57369       80.10543
C         74.76612       41.45633       79.09551
O         75.78258       40.80993       78.89859
O         73.63547       41.12142       78.44627
H         72.97018       43.42349       78.10404
H         74.53460       44.66458       80.40684
H         74.01704       42.33984       80.88884
H         75.76542       42.61143       80.60214
N         75.47740       45.80860       78.23050
C         76.41347       46.49560       77.35598
C         77.33774       47.38726       78.18740
O         78.53742       47.17899       78.06887
C         75.65362       47.21805       76.22069
C         74.85380       46.20093       75.38742
C         73.95434       46.87539       74.34878
C         73.16471       45.81439       73.56733
N         72.21875       46.43362       72.64152
H         74.71425       46.35497       78.64282
H         77.07766       45.75480       76.85273
H         76.37302       47.74776       75.55822
H         74.95396       47.97010       76.62629
H         74.19202       45.61277       76.05969
H         75.56060       45.50252       74.88694
H         74.56340       47.48541       73.64674
H         73.23958       47.54325       74.87847
H         72.59884       45.17082       74.27828
H         73.87329       45.16918       73.00119
H         72.72466       47.04208       71.95846
H         71.71173       45.68181       72.12063
H         71.52030       47.00143       73.17471
N         76.94863       48.32513       79.11044
C         75.58650       48.71315       79.47245
C         75.13987       47.97349       80.73486
O         75.91809       47.20916       81.28936
C         75.51629       50.24756       79.62034
C         76.31480       50.69963       80.80888
O         75.94403       50.28100       82.03306
O         77.30923       51.38683       80.66534
H         77.70758       48.74960       79.66750
H         74.88526       48.45461       78.67041
H         74.46706       50.58018       79.75175
H         75.90236       50.71395       78.68615
N         73.87038       48.10917       81.21166
C         73.36176       47.30495       82.31588
C         73.81466       47.73215       83.68503
O         74.46466       48.74982       83.83950
H         73.20540       48.70416       80.69480
H         73.64644       46.24471       82.15527
H         72.25227       47.36897       82.32863
N         73.47278       46.95204       84.74866
C         73.72169       47.30672       86.14349
C         72.45252       47.03340       86.97214
O         71.57118       46.34364       86.48169
C         74.91154       46.46915       86.65924
C         76.17504       46.81399       85.91991
O         76.67066       48.06584       85.97800
O         76.76372       45.96131       85.27562
H         73.01990       46.04685       84.55103
H         73.97940       48.38382       86.20985
H         74.67970       45.38837       86.54025
H         75.11387       46.64518       87.72839
N         72.25650       47.50738       88.24148
C         73.13228       48.44101       88.91962
C         73.10742       49.80040       88.26474
O         72.26882       50.05838       87.41197
H         71.40582       47.21076       88.74626
H         74.15882       48.04431       88.96303
H         72.80133       48.57811       89.97237
N         74.02510       50.72821       88.63084
C         74.08571       52.07817       88.08104
C         74.23600       52.07735       86.56189
O         75.13532       51.43210       86.04562
C         75.24507       52.85441       88.74898
C         75.34114       54.30014       88.25614
O         76.46601       52.19996       88.51180
H         74.71879       50.45138       89.34468
H         73.14535       52.60819       88.35041
H         75.02549       52.88215       89.84428
H         76.95734       52.16004       89.37346
H         74.38225       54.83175       88.43192
H         76.14761       54.82481       88.80868
H         75.58070       54.33443       87.17159
N         73.39663       52.85063       85.80666
C         73.45910       53.05444       84.35920
C         74.78282       53.68436       83.92834
O         75.83424       53.09886       84.13864
C         73.18223       51.76281       83.53538
C         71.91106       50.99292       83.97629
C         73.10557       52.08251       82.02546
C         70.60276       51.78348       83.89379
H         72.66196       53.38050       86.29941
H         72.64073       53.76089       84.09793
H         74.03514       51.07909       83.68263
H         72.04215       50.64988       85.01860
H         71.80904       50.08169       83.34530
H         72.91606       51.15636       81.44485
H         72.29474       52.80796       81.80586
H         74.05649       52.52055       81.65780
H         70.63241       52.66509       84.56560
H         70.39227       52.11286       82.85635
H         69.76437       51.13223       84.21980
N         74.78167       54.83318       83.19696
C         75.97736       55.31855       82.50885
C         76.99756       56.02097       83.39739
O         78.05422       56.35967       82.88067
C         75.58349       56.24944       81.32860
C         74.94442       57.56914       81.78661
O         74.68807       55.58657       80.47289
H         73.86808       55.25230       82.97254
H         76.46969       54.43575       82.04973
H         76.49895       56.52314       80.75334
H         75.21052       54.89544       79.98764
H         74.00602       57.39778       82.35197
H         75.64455       58.14428       82.42825
H         74.70260       58.19133       80.89958
N         76.74424       56.35575       84.69510
C         77.66090       57.20590       85.45566
C         78.99170       56.51400       85.69874
O         79.01849       55.54362       86.44368
C         77.01634       57.63917       86.79889
C         77.93390       58.54717       87.62237
O         75.82257       58.33711       86.54430
H         75.84217       56.08695       85.11393
H         77.83100       58.13196       84.86145
H         76.81331       56.73638       87.42199
H         75.07018       57.70431       86.68276
H         78.86808       58.01358       87.89137
H         78.18942       59.46527       87.05214
H         77.42635       58.83949       88.56611
N         80.14308       56.97891       85.11382
C         81.47374       56.44174       85.40206
C         81.47241       54.94504       85.17649
O         81.60164       54.17408       86.11812
C         81.91010       56.87458       86.81881
C         82.08129       58.40996       86.86766
C         82.51417       58.94723       88.23753
C         81.40154       58.83541       89.29002
N         81.82728       59.41010       90.56431
H         80.08104       57.75870       84.44203
H         82.22114       56.88026       84.70219
H         82.89419       56.41393       87.05744
H         81.16832       56.52379       87.56355
H         81.14407       58.92533       86.56383
H         82.87182       58.68502       86.13409
H         82.75598       60.02624       88.11534
H         83.43408       58.42261       88.57541
H         81.12017       57.77339       89.44868
H         80.50789       59.39056       88.92876
H         82.07565       60.41867       90.44007
H         81.04003       59.33907       91.24879
H         82.65125       58.88473       90.93620
N         81.27325       54.48028       83.91488
C         81.00923       53.08814       83.59232
C         79.65051       53.01645       82.91014
O         78.74338       52.52852       83.56166
C         82.15599       52.44617       82.79069
C         83.35978       52.12625       83.68844
C         84.47369       51.51146       82.89123
O         85.01954       52.14918       82.00496
O         84.88114       50.25496       83.15488
H         81.23676       55.17305       83.15669
H         80.90925       52.49378       84.53017
H         82.47829       53.11976       81.97316
H         81.80374       51.48143       82.36186
H         83.03664       51.40309       84.47090
H         83.73474       53.04329       84.18933
N         79.35449       53.48641       81.66071
C         80.28196       54.03551       80.69798
H         81.01569       53.26604       80.39096
H         79.72700       54.32358       79.77976
H         80.77969       54.94329       81.07966
H         78.37646       53.42558       81.35059
Ca        77.09062       50.44848       83.95671
O         78.09033       47.80609       83.07233
H         78.38439       48.00139       82.14741
H         78.59589       46.99555       83.33026
O         80.05747       49.55402       84.65126
H         80.57605       49.10017       83.94066
H         80.74066       50.00015       85.21160
O         78.34905       51.24723       86.56327
H         77.92715       52.09208       86.26495
H         79.23234       51.52241       86.91439

Ca 1.0



