%chk=apoCaM-CA-Ng.loop2.water3.frame128.chk
%nprocshared=20
%mem=10GB
%nosave
#b3lyp/svp scf=(tight,noincore,xqc) Test 
#IOP(5/87=12) Density=Current Pop=(MK,readradii) iop(6/33=2) iop(6/42=6)

apoCaM-CA-Ng.loop2.water3.frame128 

   -2  1 
C         33.35336       46.34996       -0.70006
C         32.74097       45.91960       -1.99926
O         33.12655       46.43184       -3.04069
H         34.10955       47.14703       -0.86456
H         32.56251       46.74532       -0.02721
H         33.84318       45.48036       -0.21553
N         31.73594       45.00014       -2.00089
C         31.04181       44.57975       -3.21405
C         29.71989       45.31480       -3.38863
O         29.05147       45.04676       -4.37226
C         30.83996       43.04409       -3.24299
C         29.85799       42.52973       -2.21513
O         28.82896       41.98249       -2.57954
O         30.11029       42.64083       -0.89770
H         31.39864       44.66246       -1.08866
H         31.66086       44.83829       -4.10163
H         31.81525       42.52877       -3.11234
H         30.45353       42.77160       -4.25090
N         29.28781       46.24384       -2.48042
C         28.04081       47.00342       -2.52806
C         27.98697       48.04215       -3.64371
O         28.03572       49.22225       -3.32424
C         26.81251       46.08756       -2.52571
H         29.86879       46.42948       -1.65095
H         27.99841       47.58080       -1.57460
H         26.85414       45.40746       -1.64853
H         25.88753       46.69831       -2.45629
H         26.75485       45.47143       -3.44521
N         27.81682       47.70114       -4.95462
C         27.64052       48.67541       -6.02778
C         28.71858       48.55211       -7.09934
O         28.62294       49.25312       -8.09781
C         26.24806       48.46745       -6.65553
C         25.15173       48.56034       -5.62840
O         24.41791       47.60561       -5.42853
O         24.97344       49.69251       -4.92288
H         27.72951       46.71382       -5.21785
H         27.68593       49.71565       -5.63770
H         26.21094       47.46719       -7.14114
H         26.06624       49.24078       -7.43312
N         29.79057       47.71702       -6.95672
C         30.84460       47.57655       -7.95090
C         31.48272       48.90415       -8.27603
O         31.56744       49.25485       -9.44492
H         29.89710       47.16280       -6.09566
H         30.43596       47.11716       -8.87766
H         31.62390       46.89619       -7.54464
N         31.89678       49.72736       -7.27672
C         32.42944       51.05966       -7.53061
C         33.84648       50.97480       -8.06076
O         34.72148       50.45648       -7.38139
C         32.35400       51.90896       -6.25165
C         30.91111       52.12878       -5.86770
N         30.09327       52.87306       -6.65067
O         30.47494       51.62499       -4.84710
H         31.73937       49.42521       -6.30211
H         31.78675       51.56756       -8.28327
H         32.81794       52.90542       -6.40892
H         32.90182       51.38684       -5.43545
H         30.44490       53.31656       -7.51201
H         29.10723       53.02026       -6.39019
N         34.12957       51.47148       -9.29563
C         35.44036       51.43770       -9.91693
C         36.44869       52.30361       -9.19664
O         36.16407       53.46681       -8.94826
H         33.36401       51.88452       -9.84990
H         35.33903       51.85532      -10.94193
H         35.79225       50.38802      -10.01888
N         37.69492       51.82206       -8.92035
C         38.76216       52.66013       -8.36619
C         38.57345       52.97324       -6.87778
O         39.33384       53.77318       -6.35027
C         40.16411       52.03866       -8.64234
C         40.41981       50.68825       -7.95106
O         40.38778       51.92994      -10.02810
H         37.90900       50.86133       -9.22243
H         38.75041       53.62548       -8.92102
H         40.93078       52.74302       -8.25205
H         39.86630       51.15852      -10.37172
H         40.34079       50.79747       -6.85916
H         39.70741       49.90586       -8.28239
H         41.44836       50.33940       -8.18238
N         37.61343       52.35539       -6.13426
C         37.39029       52.56282       -4.69984
C         35.93813       52.94656       -4.44561
O         35.17716       53.06804       -5.39543
C         37.75726       51.25967       -3.91161
C         37.08164       50.00268       -4.52531
C         39.28309       51.11687       -3.81420
C         37.20816       48.74993       -3.66341
H         37.01091       51.66387       -6.59905
H         38.01044       53.39663       -4.30254
H         37.41423       51.36050       -2.86365
H         37.51841       49.78175       -5.52371
H         35.99484       50.19829       -4.65149
H         39.57074       50.24847       -3.18969
H         39.73570       51.00643       -4.81048
H         39.71565       52.02015       -3.33114
H         36.73282       48.92081       -2.67481
H         36.68481       47.91015       -4.16815
H         38.26690       48.45530       -3.52433
N         35.47470       53.10094       -3.16727
C         34.06941       53.31579       -2.84210
C         33.93373       54.51079       -1.89291
O         33.13770       54.47568       -0.96762
C         33.56841       51.97986       -2.24515
C         32.08329       51.82153       -2.09849
O         31.64385       50.75777       -1.69155
O         31.22153       52.78883       -2.45871
H         36.12327       52.98247       -2.37503
H         33.49543       53.52621       -3.77042
H         34.07032       51.79905       -1.26903
H         33.87977       51.16730       -2.94014
N         34.76117       55.58395       -2.04596
C         34.80840       56.76594       -1.17682
C         34.93750       56.40156        0.30697
O         35.83946       55.65795        0.64483
C         35.95522       57.71163       -1.65004
C         37.30099       57.02491       -1.86785
C         38.11689       56.59778       -0.80279
C         37.74209       56.79030       -3.18665
C         39.31672       55.92119       -1.05340
C         38.94046       56.11661       -3.43152
C         39.72395       55.67448       -2.36601
H         35.42291       55.54043       -2.83179
H         33.86328       57.32398       -1.31677
H         36.06034       58.59663       -0.98582
H         35.61480       58.10114       -2.63446
H         37.84061       56.78448        0.22301
H         37.14499       57.10855       -4.03208
H         39.93150       55.58475       -0.22838
H         39.25592       55.93045       -4.44977
H         40.64849       55.14548       -2.55858
N         34.06966       56.88085        1.26146
C         34.11374       56.54818        2.68640
C         34.13162       55.05851        2.97265
O         34.88393       54.61808        3.83004
C         32.80203       57.13947        3.22851
C         32.64125       58.36784        2.37328
C         33.00270       57.82862        0.99294
H         34.98778       57.05505        3.15457
H         31.94357       56.47442        2.97609
H         32.79594       57.31573        4.32594
H         31.65144       58.86887        2.43070
H         33.42731       59.09284        2.68791
H         32.15798       57.28664        0.51283
H         33.32674       58.69318        0.37452
N         33.30660       54.22879        2.27641
C         33.16863       52.78999        2.51053
C         34.45787       51.99287        2.29619
O         34.43716       50.79982        2.56655
C         32.07592       52.22346        1.57325
C         30.68637       52.82749        1.84297
C         29.70175       52.39123        0.80117
O         29.43968       51.08424        0.60920
O         29.13106       53.22931        0.12189
H         32.72511       54.66725        1.54939
H         32.85291       52.63709        3.56634
H         31.99701       51.11985        1.68732
H         32.38383       52.44065        0.53061
H         30.71770       53.93600        1.82754
H         30.33268       52.51050        2.84580
N         35.60575       52.55682        1.82413
C         36.84669       51.83442        1.63651
H         37.63657       52.30124        2.26296
H         36.76416       50.76434        1.91675
H         37.15140       51.90188        0.57111
H         35.62536       53.54522        1.57670
Ca        29.03107       52.21352       -2.46941
O         26.95361       52.21595       -4.65526
H         26.47297       52.09714       -5.51227
H         26.42546       51.69910       -3.99689
O         26.34452       51.94796       -1.05146
H         25.71989       52.44160       -1.63983
H         26.51337       52.56654       -0.29731
O         28.45970       54.83445       -3.63407
H         27.76422       55.29069       -3.09715
H         28.08282       54.79328       -4.54852

Ca 1.0



