%chk=apoCaM-CA-Ng.loop1.water3.frame1192.chk
%nprocshared=20
%mem=10GB
%nosave
#b3lyp/svp scf=(tight,noincore,xqc) Test 
#IOP(5/87=12) Density=Current Pop=(MK,readradii) iop(6/33=2) iop(6/42=6)

apoCaM-CA-Ng.loop1.water3.frame1192 

   0  1 
C         33.00202        3.99276       85.97450
C         33.98822        4.50944       86.98227
O         33.58810        4.81490       88.09149
H         32.21822        4.76010       85.79992
H         33.49098        3.76946       85.00261
H         32.52675        3.06496       86.35415
N         35.30405        4.64022       86.65983
C         36.33747        5.15359       87.56531
C         36.22722        6.65707       87.86870
O         37.13829        7.17959       88.49505
C         37.73580        4.82730       86.97860
C         37.97823        5.40884       85.61003
O         38.22275        4.58796       84.57002
O         37.96461        6.61619       85.43381
H         35.58939        4.31592       85.72332
H         36.28722        4.60388       88.53151
H         37.82880        3.72102       86.91064
H         38.53143        5.18010       87.67021
N         35.16506        7.41724       87.46852
C         35.08938        8.86888       87.64450
C         35.30847        9.28700       89.09861
O         36.22850       10.06496       89.31301
C         33.78723        9.46719       87.04418
C         33.64315        9.13266       85.54441
C         32.36912        9.71988       84.93346
C         32.21549        9.23791       83.48192
N         31.00403        9.77679       82.86902
H         34.38398        6.95542       87.00235
H         35.91899        9.31893       87.05181
H         33.82152       10.57344       87.15830
H         32.88863        9.10460       87.57900
H         33.58704        8.03683       85.40125
H         34.52876        9.51097       84.98835
H         32.41458       10.82992       84.97005
H         31.48689        9.37552       85.51681
H         32.16159        8.12508       83.46986
H         33.10111        9.54930       82.88466
H         30.91997        9.40047       81.89687
H         30.16254        9.48558       83.41768
H         31.05929       10.81991       82.82706
N         34.60997        8.81582       90.17573
C         33.51442        7.85169       90.15179
C         33.97692        6.51995       90.72857
O         35.12093        6.40443       91.14654
C         32.30675        8.43024       90.93047
C         32.64585        8.60737       92.38728
O         33.00905        7.52603       93.10097
O         32.64599        9.71234       92.90119
H         34.92300        9.13848       91.10564
H         33.19846        7.64125       89.11760
H         31.43452        7.74735       90.85519
H         32.01502        9.40487       90.47915
N         33.13751        5.44679       90.73878
C         33.57054        4.12563       91.16224
C         33.69232        3.96621       92.66053
O         33.35130        4.86249       93.41356
H         32.19624        5.54360       90.32909
H         34.53276        3.88383       90.66055
H         32.82022        3.37675       90.82943
N         34.18024        2.79603       93.15326
C         34.24431        2.44091       94.57362
C         33.66482        1.02607       94.75688
O         33.38987        0.39068       93.74718
C         35.72852        2.50313       94.99643
C         36.26014        3.90471       94.88101
O         35.71976        4.89118       95.62197
O         37.18621        4.15391       94.12615
H         34.54998        2.11564       92.47009
H         33.65145        3.15808       95.18314
H         36.32233        1.81634       94.35343
H         35.88609        2.19622       96.03962
N         33.45803        0.40094       95.95840
C         33.58825        0.96573       97.29031
C         32.43109        1.86854       97.61606
O         31.29899        1.40570       97.59294
H         33.15012       -0.58398       95.92441
H         34.56757        1.44010       97.44812
H         33.53001        0.13861       98.03088
N         32.63964        3.17110       97.93968
C         31.56507        4.08853       98.29288
C         31.28038        4.96480       97.09961
O         32.20883        5.49843       96.51351
C         31.91922        4.88042       99.57224
C         30.80236        5.86417       99.96094
O         33.12680        5.57365       99.39666
H         33.60032        3.54361       97.88254
H         30.63293        3.52813       98.52899
H         32.03289        4.13392      100.39401
H         33.51959        5.70156      100.29991
H         29.84501        5.32361      100.11770
H         31.06749        6.39157      100.90131
H         30.64553        6.62719       99.17041
N         29.98992        5.12165       96.68213
C         29.54978        5.83808       95.49282
C         30.03204        7.27695       95.51577
O         31.20095        7.51244       95.26124
C         29.98171        5.08868       94.19469
C         29.53620        3.60121       94.25319
C         29.42524        5.79597       92.94299
C         30.01204        2.75723       93.06904
H         29.24229        4.68719       97.24486
H         28.43609        5.83670       95.51636
H         31.08402        5.10769       94.13954
H         28.42913        3.53700       94.32569
H         29.97030        3.12838       95.16057
H         29.76455        6.85156       92.90005
H         29.79274        5.31450       92.01457
H         28.31470        5.77712       92.94730
H         29.55786        3.09732       92.11736
H         31.11783        2.79255       92.98855
H         29.70730        1.70097       93.22711
N         29.17891        8.30004       95.78553
C         29.59273        9.69824       95.73565
C         29.47358       10.40851       97.07561
O         29.74708       11.59874       97.08829
C         28.82126       10.43554       94.61176
C         27.30647       10.47493       94.82878
O         29.08081        9.81697       93.37781
H         28.19875        8.07990       96.01484
H         30.66902        9.78465       95.46430
H         29.16669       11.49596       94.56742
H         29.98551       10.11083       93.09322
H         26.83279       11.04610       94.00262
H         26.87338        9.45395       94.82487
H         27.06051       10.97508       95.78845
N         29.11144        9.77806       98.23984
C         29.03640       10.49325       99.51971
C         30.42747       11.01430       99.87200
O         31.26991       10.23383      100.29397
C         28.45990        9.57732      100.63104
C         28.23438       10.33072      101.94590
O         27.22973        9.05235      100.19945
H         28.88308        8.77384       98.21866
H         28.33131       11.34315       99.37857
H         29.18342        8.74357      100.80221
H         27.11633        8.17172      100.64517
H         27.82476        9.63333      102.70825
H         29.18388       10.75321      102.33415
H         27.50307       11.15368      101.79515
N         30.77021       12.29648       99.54097
C         32.13187       12.83879       99.52820
C         33.05121       12.01389       98.62696
O         32.66741       10.93685       98.20161
C         32.70678       13.03228      100.94309
C         31.81203       13.96503      101.77627
C         32.41585       14.24355      103.15665
C         31.48705       15.14257      103.98571
N         32.05518       15.40877      105.30652
H         30.03464       12.91177       99.16145
H         32.06820       13.84752       99.05954
H         33.71472       13.49506      100.85601
H         32.81499       12.05336      101.45648
H         30.81226       13.49502      101.90197
H         31.68587       14.93284      101.24100
H         33.40104       14.74574      103.03311
H         32.56771       13.28239      103.69354
H         30.50100       14.64097      104.10741
H         31.32553       16.10766      103.45498
H         31.39218       16.00804      105.84948
H         32.19948       14.51100      105.82338
H         32.96671       15.91258      105.21102
N         34.25852       12.49808       98.21869
C         35.12502       11.77284       97.28395
C         34.36859       11.29621       96.04555
O         34.44368       10.10654       95.78593
C         36.35735       12.60305       96.86622
C         37.37404       12.74163       98.00596
C         38.52681       13.60248       97.57737
O         38.31862       14.89464       97.25928
O         39.65582       13.14163       97.52274
H         34.53936       13.43870       98.53526
H         35.50570       10.85256       97.78644
H         36.04039       13.59915       96.49550
H         36.88145       12.08087       96.03347
H         37.74432       11.72564       98.27435
H         36.90889       13.19469       98.90477
N         33.60500       12.07779       95.22924
C         33.34370       13.48957       95.38363
H         32.25031       13.63639       95.51206
H         33.85258       13.94088       96.24837
H         33.67037       14.01732       94.46461
H         33.13615       11.62147       94.43369
Ca        33.98890        7.47597       95.12605
O         36.77694        7.82103       93.99492
H         36.43325        7.57958       93.09904
H         37.05186        6.95829       94.39428
O         32.18522        8.23652       97.80314
H         32.82387        8.63316       97.16278
H         32.76130        7.87026       98.51612
O         35.71450        7.32898       97.59417
H         35.33675        7.67213       98.44229
H         36.46211        6.74267       97.87243

Ca 1.0



