%chk=apoCaM-CA-Ng.loop3.water3.frame725.chk
%nprocshared=20
%mem=10GB
%nosave
#b3lyp/svp scf=(tight,noincore,xqc) Test 
#IOP(5/87=12) Density=Current Pop=(MK,readradii) iop(6/33=2) iop(6/42=6)

apoCaM-CA-Ng.loop3.water3.frame725 

   0  1 
C         66.22997       84.28954      -13.99179
C         65.80414       83.96877      -15.39247
O         65.39328       84.87840      -16.09859
H         67.05164       85.03597      -14.01872
H         65.37058       84.71448      -13.43229
H         66.58993       83.38451      -13.45981
N         65.87710       82.69145      -15.86632
C         65.49694       82.32137      -17.22143
C         64.34862       81.33043      -17.16065
O         64.52026       80.26225      -16.58894
C         66.73776       81.76832      -17.95220
C         66.55174       81.57743      -19.43324
O         67.48855       81.18315      -20.10873
O         65.38982       81.88867      -20.03659
H         66.22849       81.94730      -15.24393
H         65.16714       83.21350      -17.77087
H         67.05883       80.81733      -17.47880
H         67.56410       82.50265      -17.83683
N         63.12738       81.63623      -17.69375
C         61.98248       80.73277      -17.59621
C         62.22192       79.40952      -18.30306
O         61.71492       78.40700      -17.81867
C         60.67429       81.35813      -18.12842
C         60.16127       82.51595      -17.25259
C         58.76015       82.95521      -17.70867
C         58.15485       84.00625      -16.76725
N         56.79340       84.35171      -17.17989
H         63.00026       82.55216      -18.15114
H         61.80711       80.50425      -16.52005
H         59.89292       80.56564      -18.09483
H         60.79220       81.68131      -19.18556
H         60.86523       83.37568      -17.27931
H         60.08288       82.15378      -16.20354
H         58.08864       82.06824      -17.70485
H         58.81054       83.35834      -18.74361
H         58.78746       84.92089      -16.76468
H         58.12176       83.59841      -15.73181
H         56.79930       84.75834      -18.14321
H         56.18515       83.50021      -17.16207
H         56.39943       85.05607      -16.51506
N         62.96886       79.32013      -19.44180
C         63.21500       78.05438      -20.13306
C         64.67754       77.61692      -20.02914
O         65.00575       76.55188      -20.53334
C         62.66873       78.13138      -21.57467
C         63.31402       79.18181      -22.43369
O         64.61064       79.08297      -22.76866
O         62.64980       80.10635      -22.87414
H         63.39440       80.17592      -19.82718
H         62.64407       77.23467      -19.64467
H         61.57937       78.34971      -21.50514
H         62.78113       77.14621      -22.07540
N         65.58704       78.33687      -19.30709
C         66.93884       77.89439      -18.99748
C         67.92271       77.86711      -20.14777
O         69.07966       77.58113      -19.87329
H         65.28926       79.20455      -18.84808
H         66.89758       76.89248      -18.51669
H         67.36242       78.59792      -18.24997
N         67.57301       78.12152      -21.44176
C         68.52801       78.05774      -22.54611
C         68.46872       79.30822      -23.41262
O         67.63305       80.17378      -23.19465
C         68.22265       76.81433      -23.40464
C         68.30373       75.54639      -22.59021
N         67.22320       74.74318      -22.45401
O         69.35651       75.24115      -22.04926
H         66.59309       78.30838      -21.67012
H         69.56731       77.96510      -22.15979
H         68.95390       76.72838      -24.23586
H         67.20884       76.92037      -23.84846
H         66.32702       74.98132      -22.90309
H         67.28161       73.87852      -21.89618
N         69.34776       79.44458      -24.44490
C         69.34594       80.54316      -25.39581
C         69.57433       81.88075      -24.73993
O         70.50997       82.01410      -23.96359
H         70.05957       78.71208      -24.58549
H         68.39714       80.54223      -25.97573
H         70.17716       80.37544      -26.11407
N         68.78933       82.94635      -25.06895
C         68.99015       84.27678      -24.50520
C         68.52059       84.33998      -23.06108
O         68.03037       83.35119      -22.53616
C         68.27957       85.34698      -25.37878
C         68.82824       85.50491      -26.79100
C         70.19185       85.30700      -27.10366
C         67.96483       85.93699      -27.81477
C         70.66563       85.51858      -28.40036
C         68.44535       86.15388      -29.11188
C         69.79515       85.94528      -29.40903
O         70.24633       86.16582      -30.66065
H         68.06531       82.81939      -25.79379
H         70.07127       84.51344      -24.48289
H         68.38466       86.34907      -24.91766
H         67.18654       85.13848      -25.40905
H         70.91195       84.99719      -26.36417
H         66.91812       86.12146      -27.60772
H         71.71513       85.35925      -28.61605
H         67.76893       86.49388      -29.88598
H         71.17613       86.04222      -30.90127
N         68.67327       85.50242      -22.35988
C         68.30050       85.73696      -20.96749
C         66.80945       85.54101      -20.77107
O         66.35065       84.41031      -20.82691
C         69.12790       84.85634      -19.98349
C         68.83790       85.19180      -18.49423
C         70.63514       84.93935      -20.28515
C         69.20097       86.61949      -18.06695
H         69.10434       86.30377      -22.84422
H         68.54757       86.80136      -20.76868
H         68.84058       83.79254      -20.13315
H         69.41076       84.48515      -17.85522
H         67.75971       85.02930      -18.27969
H         70.84618       84.57505      -21.31290
H         71.01086       85.97932      -20.20635
H         71.20077       84.28925      -19.58435
H         68.60507       87.37253      -18.62069
H         68.97892       86.74577      -16.98701
H         70.28116       86.82155      -18.21620
N         65.97448       86.60042      -20.57231
C         64.53601       86.40412      -20.45714
C         63.78852       87.67696      -20.74977
O         63.86250       88.62202      -19.97625
C         64.16605       85.86610      -19.07055
O         62.79398       85.58075      -18.98796
H         66.35973       87.55689      -20.60577
H         64.23312       85.65819      -21.22393
H         64.47688       86.57996      -18.27130
H         64.72018       84.93579      -18.89421
H         62.35445       86.37123      -18.57927
N         63.04790       87.75660      -21.88868
C         62.24168       88.90633      -22.25208
C         60.81173       88.45235      -22.55067
O         60.57248       87.25270      -22.58551
C         62.88810       89.55217      -23.48618
H         63.06969       86.96572      -22.55152
H         62.23421       89.63707      -21.41683
H         62.91827       88.83089      -24.33126
H         62.35590       90.45892      -23.82165
H         63.93035       89.85122      -23.24316
N         59.78873       89.31475      -22.81677
C         59.86501       90.76556      -22.72218
C         59.85047       91.37046      -24.11617
O         59.54515       90.65604      -25.06189
C         58.69602       91.24287      -21.84627
H         58.88265       88.90674      -23.10055
H         60.81261       91.06941      -22.24338
H         57.73003       90.93692      -22.30143
H         58.77478       90.77240      -20.84237
H         58.66105       92.33618      -21.70211
N         60.26960       92.64214      -24.37969
C         60.76927       93.59435      -23.39569
C         62.27061       93.45269      -23.24313
O         62.72658       93.20635      -22.13389
C         60.32318       95.00916      -23.80758
C         60.69160       96.08132      -22.77517
C         60.13615       97.41527      -23.18590
O         59.24371       98.04513      -22.39793
O         60.48463       97.93253      -24.23549
H         60.32086       92.92172      -25.37265
H         60.32383       93.40618      -22.40544
H         59.21458       94.99501      -23.90900
H         60.75981       95.27187      -24.79636
H         61.79519       96.15906      -22.67500
H         60.26340       95.80176      -21.78781
N         63.10549       93.57008      -24.31021
C         64.53864       93.41475      -24.17471
H         64.94201       94.19260      -23.49165
H         64.77608       92.40862      -23.76563
H         65.02898       93.51857      -25.16519
H         62.71650       93.75812      -25.24579
Ca        65.27380       81.86986      -22.28968
O         64.07305       84.48051      -23.72020
H         63.11286       84.55558      -23.48990
H         64.12770       84.78677      -24.66003
O         65.25212       81.52491      -25.25338
H         65.09892       82.43027      -25.62363
H         65.06272       80.91108      -26.00640
O         62.67356       82.69857      -21.07272
H         62.79927       83.65458      -20.85310
H         61.78462       82.65736      -21.50520

Ca 1.0



