%chk=apoCaM-CA-Ng.loop2.water4.frame697.chk
%nprocshared=20
%mem=10GB
%nosave
#b3lyp/svp scf=(tight,noincore,xqc) Test 
#IOP(5/87=12) Density=Current Pop=(MK,readradii) iop(6/33=2) iop(6/42=6)

apoCaM-CA-Ng.loop2.water4.frame697 

   -2  1 
C         82.71214      104.13206      -12.09838
C         82.78569      105.45415      -11.39321
O         81.93347      106.30493      -11.60760
H         83.65243      103.99697      -12.67795
H         82.61883      103.30451      -11.36679
H         81.86232      104.10182      -12.81277
N         83.85218      105.71653      -10.59038
C         84.15530      107.04849      -10.08430
C         83.34939      107.42273       -8.86954
O         83.13662      106.60430       -7.99168
C         85.66013      107.18040       -9.82052
C         86.08562      108.58766       -9.49267
O         86.99152      108.80186       -8.52166
O         85.69150      109.52938      -10.16370
H         84.56856      104.97952      -10.49811
H         83.93333      107.77308      -10.90112
H         86.16998      106.90283      -10.76553
H         85.98596      106.48058       -9.02046
N         82.94967      108.71313       -8.73199
C         82.09639      109.20404       -7.66183
C         80.67750      108.69669       -7.88967
O         80.41578      108.19321       -8.97512
C         82.14549      110.74006       -7.71477
H         83.25984      109.38208       -9.45033
H         82.49437      108.85560       -6.68684
H         81.88808      111.08918       -8.73861
H         81.46927      111.24945       -7.01598
H         83.18167      111.07019       -7.48481
N         79.66999      108.78869       -6.97295
C         79.76814      109.33667       -5.61706
C         80.72173      108.59855       -4.70213
O         81.17340      107.50158       -4.99712
C         78.36975      109.46421       -4.97295
C         77.55253      108.21093       -5.07138
O         77.85727      107.13275       -4.32924
O         76.60750      108.16833       -5.84505
H         78.75025      108.45604       -7.29926
H         80.15729      110.36316       -5.67971
H         77.83802      110.26103       -5.53157
H         78.42257      109.78195       -3.90857
N         81.09286      109.22540       -3.55125
C         82.09710      108.74542       -2.62593
C         83.49529      109.02106       -3.14008
O         83.63907      109.50022       -4.25640
H         80.68255      110.14844       -3.34060
H         81.94137      107.67580       -2.37663
H         81.97796      109.34309       -1.69804
N         84.60313      108.80146       -2.37522
C         84.56501      108.29669       -1.00564
C         84.56986      106.77210       -0.95052
O         84.66773      106.23235        0.14373
C         85.75749      108.85862       -0.19629
C         87.06829      108.15251       -0.46280
N         87.67314      107.46142        0.53389
O         87.57608      108.18658       -1.57316
H         85.51275      109.08602       -2.76985
H         83.67324      108.70513       -0.48646
H         85.51223      108.72901        0.87994
H         85.86046      109.95127       -0.37423
H         87.24954      107.41053        1.47303
H         88.55960      106.96369        0.37072
N         84.53425      106.01147       -2.08606
C         84.76027      104.57447       -2.10059
C         83.74173      103.73677       -1.36162
O         83.91031      102.52487       -1.35189
H         84.42364      106.46327       -3.00420
H         85.76841      104.37761       -1.67736
H         84.76084      104.22810       -3.15721
N         82.66725      104.27948       -0.72417
C         81.65125      103.46562       -0.07317
C         80.72159      102.89556       -1.11102
O         80.54320      103.49092       -2.16120
C         80.91398      104.24596        1.02654
C         81.85050      104.49740        2.20832
O         80.44924      105.47554        0.53204
H         82.51990      105.29457       -0.75132
H         82.14406      102.60176        0.43101
H         80.07153      103.62477        1.41562
H         79.46098      105.42886        0.50417
H         82.76005      105.04742        1.88727
H         81.32571      105.08407        2.98878
H         82.16071      103.52386        2.64888
N         80.18563      101.66558       -0.91053
C         79.60677      100.86025       -1.97476
C         78.10047      100.84707       -1.91087
O         77.54268      100.55702       -0.86211
C         80.17642       99.42111       -1.87754
C         79.48281       98.47893       -2.89441
C         81.70509       99.46296       -2.05089
C         80.06412       97.06949       -2.89970
H         80.37168      101.20011       -0.00808
H         79.91491      101.25395       -2.96822
H         79.95787       99.01415       -0.86271
H         79.51267       98.88883       -3.92431
H         78.41508       98.39322       -2.59739
H         82.14653       98.45333       -1.93815
H         81.97014       99.87715       -3.04493
H         82.16850      100.09491       -1.26337
H         80.24545       96.71728       -1.86190
H         79.35365       96.37620       -3.39488
H         81.01795       97.06068       -3.46809
N         77.38419      101.09461       -3.04889
C         75.93891      101.03712       -3.13180
C         75.41721      100.05726       -4.20964
O         74.23433       99.75033       -4.16158
C         75.37263      102.45114       -3.39754
C         76.18745      103.57152       -2.80161
O         77.33866      103.89750       -3.39045
O         75.77210      104.26225       -1.88992
H         77.88318      101.38072       -3.88157
H         75.56287      100.69834       -2.14537
H         74.33367      102.48329       -3.01826
H         75.35779      102.66080       -4.49152
N         76.19510       99.58093       -5.24204
C         75.67891       98.73412       -6.32365
C         76.48891       98.95179       -7.62602
O         76.95729       97.97482       -8.19311
C         75.74339       97.25550       -5.83020
C         74.99268       96.16699       -6.58035
C         73.99816       96.43010       -7.54168
C         75.25554       94.82502       -6.23221
C         73.26673       95.37732       -8.10835
C         74.53415       93.77760       -6.81467
C         73.53009       94.05502       -7.74207
H         77.16658       99.87688       -5.31485
H         74.63407       99.04317       -6.53635
H         75.32679       97.20955       -4.80195
H         76.81884       96.97847       -5.74793
H         73.75110       97.43851       -7.83383
H         76.01822       94.58669       -5.49999
H         72.48133       95.58730       -8.82231
H         74.74132       92.75132       -6.53449
H         72.95273       93.24581       -8.17274
N         76.70557      100.19930       -8.17424
C         77.45123      100.44576       -9.41815
C         78.90457       99.96836       -9.40677
O         79.54249       99.94017      -10.45090
C         77.43183      101.98107       -9.54990
C         76.12937      102.34031       -8.86529
C         76.15628      101.42837       -7.64551
H         76.88483       99.95002      -10.23580
H         78.23964      102.42362       -8.91737
H         77.55102      102.36987      -10.58431
H         75.99655      103.41715       -8.62546
H         75.29863      102.00970       -9.52780
H         76.84725      101.82809       -6.86945
H         75.12916      101.31857       -7.24197
N         79.49918       99.64915       -8.22773
C         80.86468       99.19546       -8.05235
C         80.93493       97.72996       -8.44933
O         81.83773       97.35246       -9.18244
C         81.35344       99.46715       -6.60180
C         81.40342      100.97329       -6.23177
C         80.16644      101.63791       -5.76447
O         80.30529      102.92687       -5.40553
O         79.12099      101.04439       -5.64069
H         78.93120       99.70045       -7.38910
H         81.56012       99.78652       -8.69148
H         82.41076       99.12990       -6.55916
H         80.79361       98.89287       -5.83565
H         81.78193      101.57888       -7.08016
H         82.08292      101.10143       -5.36446
N         79.92229       96.88105       -8.10275
C         79.78320       95.53118       -8.61351
H         78.87386       95.48611       -9.25454
H         80.64926       95.21622       -9.23097
H         79.65060       94.81860       -7.77448
H         79.15832       97.22922       -7.50909
Ca        79.21560      104.50851       -4.30485
O         79.55818      106.49302       -2.10196
H         79.63935      107.40925       -1.73785
H         78.82915      106.08230       -1.57452
O         77.96351      105.21183       -6.82681
H         78.10130      105.61916       -7.71674
H         77.36289      105.84593       -6.37392
O         80.69815      105.16670       -7.06255
H         80.22749      105.07550       -7.92447
H         81.63351      104.98181       -7.30532
O         82.34563      104.74229       -4.68110
H         82.47836      103.97935       -5.29719
H         82.86731      105.47443       -5.09334

Ca 1.0



