%chk=apoCaM-CA-Ng.loop3.water2.frame548.chk
%nprocshared=20
%mem=10GB
%nosave
#b3lyp/svp scf=(tight,noincore,xqc) Test 
#IOP(5/87=12) Density=Current Pop=(MK,readradii) iop(6/33=2) iop(6/42=6)

apoCaM-CA-Ng.loop3.water2.frame548 

   0  1 
C         44.73611       14.03062       70.44321
C         43.38041       13.44901       70.70596
O         42.57429       14.08054       71.37492
H         45.52164       13.34676       70.82429
H         44.86720       14.16332       69.34739
H         44.84356       15.02182       70.93263
N         43.04552       12.24749       70.16165
C         41.70741       11.68553       70.26953
C         41.38471       11.30420       71.71058
O         42.04269       10.43401       72.26382
C         41.57623       10.46353       69.33200
C         40.15412       10.09044       69.03553
O         39.91713        9.09452       68.37163
O         39.13882       10.88796       69.41265
H         43.74959       11.76440       69.58164
H         41.00463       12.46445       69.90881
H         42.12691        9.60250       69.76920
H         42.02986       10.69193       68.34676
N         40.38403       11.93669       72.38199
C         40.00339       11.62489       73.75971
C         39.42218       10.22609       73.86978
O         39.77317        9.51293       74.79937
C         38.95846       12.65086       74.24300
C         38.48245       12.49841       75.70617
C         39.60183       12.67698       76.74549
C         39.03592       12.63316       78.17456
N         40.09857       12.78493       79.16887
H         39.87821       12.69176       71.89215
H         40.89243       11.73069       74.41824
H         38.06813       12.56800       73.58211
H         39.39020       13.67031       74.12810
H         37.99215       11.51155       75.84785
H         37.71636       13.28363       75.88852
H         40.10073       13.65828       76.58804
H         40.35266       11.86739       76.63238
H         38.51617       11.66376       78.34212
H         38.29521       13.45399       78.30564
H         39.67834       12.75983       80.12634
H         40.78600       12.00147       79.08239
H         40.58760       13.70036       79.03938
N         38.51064        9.77890       72.95774
C         37.81079        8.50007       73.06695
C         38.36714        7.44202       72.11720
O         37.87450        6.32342       72.16148
C         36.27862        8.73785       72.94876
C         35.88898        9.42038       71.66944
O         36.05302        8.80422       70.49110
O         35.52140       10.58516       71.68764
H         38.30674       10.37563       72.14141
H         37.97633        8.06512       74.07661
H         35.99066        9.40537       73.79061
H         35.70896        7.79108       73.05327
N         39.44635        7.67634       71.30643
C         40.11278        6.62016       70.54831
C         39.26855        5.95990       69.47491
O         39.72655        4.96828       68.92307
H         39.88285        8.60680       71.29344
H         40.42567        5.83554       71.27254
H         41.03453        7.01924       70.07249
N         38.03057        6.41792       69.14193
C         37.11793        5.72116       68.24794
C         36.68992        6.59722       67.08684
O         36.19808        7.69694       67.30351
C         35.87736        5.29872       69.06034
C         34.81635        4.64886       68.20204
N         35.07562        3.52064       67.50104
O         33.70855        5.15998       68.13304
H         37.68295        7.27457       69.58537
H         37.58169        4.79227       67.84947
H         35.43982        6.19626       69.55183
H         36.18785        4.59016       69.85869
H         36.00166        3.07212       67.53971
H         34.34540        3.09691       66.90952
N         36.73508        6.09705       65.82085
C         36.14194        6.76462       64.67976
C         36.87132        8.02203       64.29686
O         38.04706        7.94962       63.96770
H         37.11088        5.14836       65.66833
H         35.06912        6.96553       64.89679
H         36.17621        6.08207       63.80352
N         36.20691        9.21043       64.25122
C         36.81818       10.44339       63.76029
C         37.97162       10.89348       64.65146
O         38.20849       10.30092       65.69391
C         35.74252       11.53978       63.57743
C         34.74795       11.14766       62.50257
C         33.53251       10.52267       62.83390
C         35.03909       11.39584       61.14899
C         32.63559       10.13986       61.83109
C         34.13256       11.02687       60.14869
C         32.92929       10.39164       60.48731
O         32.05043       10.01980       59.53408
H         35.21328        9.21668       64.52185
H         37.25145       10.23259       62.75614
H         36.19963       12.50983       63.28532
H         35.21909       11.70655       64.54115
H         33.28241       10.31588       63.86621
H         35.96527       11.88177       60.86803
H         31.71047        9.64513       62.09943
H         34.36748       11.23152       59.11134
H         32.21311       10.17582       58.59270
N         38.79694       11.88922       64.21233
C         40.08332       12.26072       64.80346
C         39.98632       12.90107       66.18869
O         39.54017       12.26107       67.12497
C         41.06606       11.03934       64.84632
C         42.48596       11.41746       65.36112
C         41.15983       10.32654       63.48361
C         43.27210       12.38618       64.47155
H         38.56183       12.34407       63.31691
H         40.53286       13.00401       64.11137
H         40.66978       10.29361       65.56865
H         43.08625       10.48712       65.46496
H         42.40914       11.86743       66.37200
H         41.51996       11.01347       62.69109
H         41.85016        9.45845       63.55401
H         40.16983        9.93430       63.17282
H         42.74840       13.35618       64.36474
H         44.26104       12.58415       64.93587
H         43.45270       11.95034       63.46811
N         40.55300       14.12478       66.39937
C         40.89064       14.66120       67.72250
C         39.72560       15.12847       68.59942
O         40.00645       15.60997       69.68925
C         41.89956       15.81710       67.55929
O         43.06723       15.35919       66.92462
H         40.93323       14.61406       65.57531
H         41.43923       13.87482       68.27640
H         42.20203       16.21041       68.55336
H         41.43945       16.66539       67.00081
H         43.01351       15.62457       65.97018
N         38.41636       15.02520       68.23789
C         37.32870       15.55114       69.06745
C         36.72831       14.45638       69.93278
O         36.36104       13.42796       69.38421
C         36.25160       16.16098       68.16785
H         38.17565       14.57080       67.34714
H         37.70002       16.38006       69.70108
H         36.68930       16.97417       67.55171
H         35.82058       15.39386       67.49110
H         35.43319       16.58684       68.78658
N         36.56390       14.56342       71.28807
C         36.88203       15.73377       72.10762
C         35.99075       16.92218       71.76004
O         34.78480       16.71719       71.71267
C         36.60711       15.43568       73.58952
H         36.16462       13.74150       71.77084
H         37.96452       15.92879       72.03782
H         35.53954       15.17880       73.76148
H         37.22038       14.59646       73.93599
H         36.86689       16.31685       74.21518
N         36.42773       18.21271       71.62346
C         37.81042       18.67995       71.71335
C         38.18551       19.66725       70.61082
O         39.36185       19.99706       70.53160
C         38.11083       19.28767       73.10897
C         37.28268       20.52475       73.51164
C         35.84681       20.20011       73.81299
O         35.54539       19.31106       74.77943
O         34.94737       20.75531       73.20255
H         35.68869       18.92271       71.53638
H         38.50789       17.83796       71.58514
H         39.18176       19.58917       73.11703
H         37.99644       18.50699       73.89141
H         37.35837       21.30667       72.72498
H         37.71597       20.94066       74.44640
N         37.27402       20.20430       69.74596
C         37.62629       21.16509       68.71955
H         38.71636       21.37202       68.68192
H         37.30944       20.77659       67.73007
H         37.09828       22.12189       68.91752
H         36.27803       19.96194       69.80610
Ca        37.05980       10.16667       69.06381
O         34.30105       10.25580       67.44591
H         33.78351        9.53647       67.00469
H         33.97259       11.08903       67.02476
O         36.29656       12.73297       66.64760
H         36.72021       13.25705       65.92269
H         35.37753       13.09578       66.70719

Ca 1.0



