%chk=apoCaM-CA-Ng.loop4.water7.frame1049.chk
%nprocshared=20
%mem=10GB
%nosave
#b3lyp/svp scf=(tight,noincore,xqc) Test 
#IOP(5/87=12) Density=Current Pop=(MK,readradii) iop(6/33=2) iop(6/42=6)

apoCaM-CA-Ng.loop4.water7.frame1049 

   -3  1 
C         60.40472       83.76935       57.90747
C         61.30791       82.86336       57.11490
O         60.84776       81.81781       56.67989
H         59.38463       83.33391       57.97807
H         60.79937       83.88367       58.93858
H         60.32746       84.76477       57.42781
N         62.62204       83.15339       56.89001
C         63.28575       84.37010       57.35506
C         62.91926       85.59552       56.51769
O         63.40580       86.67119       56.84163
C         64.82302       84.19672       57.33095
C         65.29529       83.11215       58.26518
O         64.96425       81.95015       58.09289
O         66.10511       83.42205       59.29591
H         63.18192       82.44717       56.38729
H         63.00769       84.55771       58.41588
H         65.29609       85.14723       57.66363
H         65.17428       83.98231       56.29905
N         62.08534       85.53422       55.43441
C         61.76789       86.72002       54.63608
C         62.96480       87.22205       53.82240
O         62.86423       88.31176       53.27695
C         60.55165       86.48507       53.68327
C         60.84798       85.40819       52.60107
C         59.28744       86.15495       54.50093
C         59.74885       85.28769       51.54467
H         61.64571       84.63931       55.19006
H         61.47191       87.52706       55.34490
H         60.35643       87.44906       53.16112
H         61.00398       84.41300       53.06484
H         61.77669       85.68199       52.05715
H         58.39011       86.10965       53.85221
H         59.38784       85.18494       55.03012
H         59.10076       86.95183       55.25200
H         60.05554       84.54283       50.78020
H         58.79394       84.94105       51.98739
H         59.59139       86.26553       51.04157
N         64.10061       86.47466       53.65991
C         65.23512       86.87874       52.81663
C         66.41691       85.89662       52.96803
O         66.28170       84.86949       53.61835
C         64.76217       86.98563       51.33378
C         65.80975       87.47544       50.37806
O         66.34264       88.70245       50.53109
O         66.16073       86.77701       49.44019
H         64.14627       85.57503       54.14814
H         65.58624       87.87039       53.17729
H         63.91606       87.69236       51.24146
H         64.38552       86.00214       50.99302
N         67.64287       86.18556       52.44604
C         68.80594       85.33330       52.65400
C         68.93373       84.16745       51.68581
O         69.91435       83.44752       51.81021
H         67.79586       87.10007       51.99995
H         68.83725       84.98712       53.71021
H         69.71597       85.95149       52.49401
N         68.05537       83.95101       50.66131
C         68.27773       82.95540       49.60733
C         67.12312       81.96933       49.52240
O         65.98352       82.40769       49.54274
C         68.39601       83.66357       48.24305
C         69.58705       84.57959       48.12632
O         70.46031       84.73464       49.14033
O         69.77702       85.17956       47.08118
H         67.23091       84.56123       50.56941
H         69.22857       82.40777       49.76356
H         67.46977       84.24657       48.04620
H         68.49793       82.89114       47.44828
N         67.30218       80.63048       49.31810
C         68.60248       79.99756       49.15669
C         68.43870       78.54207       48.75940
O         67.86575       78.31713       47.70272
H         66.45645       80.04591       49.22370
H         69.17336       80.13529       50.08426
H         69.16214       80.49535       48.33557
N         68.86245       77.47526       49.50387
C         69.53904       77.51046       50.79533
C         68.68625       78.26936       51.79766
O         69.14314       79.24004       52.38647
C         71.00200       78.00403       50.63766
C         71.85067       77.74454       51.89592
C         73.28430       78.16574       51.68555
N         73.86176       79.08782       52.49121
O         73.93695       77.65851       50.78496
H         68.65113       76.53459       49.13324
H         69.61290       76.45724       51.15015
H         71.05007       79.07616       50.36372
H         71.46220       77.42537       49.80583
H         71.84015       76.65727       52.12733
H         71.42421       78.28456       52.76542
H         73.33568       79.52174       53.26346
H         74.84414       79.36545       52.34701
N         67.39631       77.87812       52.00488
C         66.46685       78.59522       52.87419
C         65.24247       79.05818       52.09517
O         65.05173       78.65511       50.95596
C         66.06131       77.71891       54.09120
C         67.27269       77.46648       54.99984
C         65.43553       76.37372       53.67465
H         67.05371       77.04531       51.50179
H         66.94870       79.52043       53.26135
H         65.31224       78.28010       54.69199
H         66.96606       76.88601       55.89583
H         68.06368       76.90028       54.46311
H         67.69869       78.43269       55.34573
H         64.55835       76.52648       53.01528
H         66.16798       75.73610       53.13691
H         65.09980       75.81656       54.57455
N         64.38089       79.95582       52.65724
C         63.19082       80.46377       51.97014
C         62.07481       79.43932       51.89817
O         61.08936       79.69659       51.22347
C         62.63258       81.69529       52.71110
C         63.67879       82.76081       52.79653
N         64.16679       83.32429       51.67105
O         64.10799       83.09703       53.88806
H         64.61629       80.32787       53.59076
H         63.48420       80.75900       50.93801
H         62.32259       81.39296       53.73753
H         61.74395       82.10791       52.18564
H         63.80116       83.05897       50.74606
H         64.91974       84.01672       51.71861
N         62.12275       78.30098       52.64380
C         61.04303       77.31561       52.69277
C         61.25419       76.35431       53.86130
O         62.21162       76.50337       54.60683
C         60.88299       76.62203       51.31613
C         62.12200       75.89349       50.86424
C         62.43548       74.62981       51.38555
C         62.96742       76.46773       49.90052
C         63.57885       73.95202       50.95604
C         64.11750       75.79509       49.48042
C         64.42644       74.53283       50.00694
O         65.52953       73.86978       49.60690
H         62.93976       78.16912       53.24736
H         60.09146       77.84518       52.91940
H         60.63727       77.40442       50.56945
H         60.01339       75.93163       51.29259
H         61.78610       74.16199       52.11004
H         62.74441       77.44234       49.48360
H         63.80355       72.97336       51.36055
H         64.76552       76.25571       48.74554
H         66.14165       74.23857       48.95428
N         60.36721       75.35196       54.10531
C         60.47581       74.48583       55.27250
C         59.14520       74.50807       55.99098
O         58.14037       74.14946       55.39247
C         60.94340       73.09447       54.83153
C         61.25817       72.18424       56.02812
C         61.91661       70.89261       55.61837
O         62.15387       70.64278       54.44594
O         62.27789       70.00869       56.56682
H         59.58915       75.19808       53.44768
H         61.26142       74.86561       55.96187
H         61.89483       73.24414       54.27358
H         60.20398       72.62071       54.15019
H         60.32319       71.96311       56.58421
H         61.96279       72.70992       56.70966
N         59.05428       74.99786       57.26104
C         57.77243       75.25558       57.90663
C         57.04231       76.30946       57.09347
O         55.93960       76.05452       56.62894
C         57.99061       75.74241       59.35784
C         56.67158       76.03982       60.09188
C         56.93893       76.53527       61.48377
O         57.58030       77.55981       61.65690
O         56.46588       75.86220       62.54892
H         59.92022       75.26274       57.75478
H         57.17911       74.31382       57.94928
H         58.61903       76.65931       59.35158
H         58.53916       74.95327       59.91855
H         56.05265       75.11713       60.13364
H         56.09824       76.82483       59.55384
N         57.63072       77.51540       56.85678
C         57.00650       78.54134       56.05347
H         56.04658       78.85460       56.51401
H         57.67751       79.42470       55.98603
H         56.82469       78.15808       55.02685
H         58.56727       77.70816       57.24334
Ca        56.91480       76.64924       64.61990
O         58.33196       76.26259       67.42755
H         59.00371       76.90267       67.77313
H         57.50955       76.46385       67.94104
O         53.99300       76.77980       65.49070
H         53.57958       77.56214       65.93456
H         53.60253       76.77312       64.58082
O         59.38267       74.75561       63.94462
H         59.00138       74.56384       64.83818
H         58.73189       74.36533       63.30854
O         59.23308       78.81723       65.27414
H         59.41149       79.53752       64.61858
H         59.76854       78.04916       64.95172
O         55.47610       79.23007       63.57459
H         56.22054       79.87616       63.48022
H         54.99519       79.27578       62.71036
O         56.20065       73.96430       66.05442
H         56.30513       73.78506       65.08612
H         55.29338       74.35177       66.13798
O         56.22574       78.95326       66.77978
H         55.90082       79.86773       66.58366
H         57.00387       79.08876       67.37685

Ca 1.0



