%chk=apoCaM-CA-Ng.loop4.water5.frame606.chk
%nprocshared=20
%mem=10GB
%nosave
#b3lyp/svp scf=(tight,noincore,xqc) Test 
#IOP(5/87=12) Density=Current Pop=(MK,readradii) iop(6/33=2) iop(6/42=6)

apoCaM-CA-Ng.loop4.water5.frame606 

   -3  1 
C         55.77441       35.20105      -12.44437
C         55.81320       36.56629      -11.82732
O         56.87544       36.99873      -11.40363
H         55.43038       35.27861      -13.49706
H         56.78225       34.73340      -12.43127
H         55.07308       34.55525      -11.87568
N         54.67248       37.31051      -11.75409
C         54.60053       38.64858      -11.17835
C         55.50599       39.59830      -11.93060
O         56.42961       40.15245      -11.34668
C         54.91967       38.64076       -9.67336
C         53.99053       37.76984       -8.89297
O         54.51029       36.82075       -8.10251
O         52.78923       37.98502       -8.88397
H         53.80154       36.91128      -12.13677
H         53.56018       39.03033      -11.28586
H         54.81853       39.67586       -9.27933
H         55.96540       38.31337       -9.49019
N         55.27530       39.84288      -13.24950
C         56.09381       40.75677      -14.04064
C         55.26027       41.96144      -14.47012
O         54.04286       41.84242      -14.50299
C         56.75690       40.01453      -15.24074
C         55.70044       39.42663      -16.21744
C         57.70629       38.92539      -14.70447
C         56.30324       38.78053      -17.46538
H         54.46992       39.37909      -13.69522
H         56.89986       41.14663      -13.38846
H         57.37357       40.74764      -15.80356
H         55.03628       40.24656      -16.56425
H         55.07592       38.66240      -15.70943
H         58.44995       39.37428      -14.01250
H         57.14166       38.14028      -14.15783
H         58.27806       38.44684      -15.52396
H         56.91605       37.89370      -17.20621
H         55.48307       38.43406      -18.12952
H         56.92420       39.51488      -18.01959
N         55.79517       43.19559      -14.72532
C         57.21686       43.53542      -14.65807
C         57.55719       44.35615      -13.41592
O         58.73519       44.54041      -13.15106
C         57.67095       44.21410      -15.96739
C         57.03498       45.55491      -16.25689
O         57.32132       46.13777      -17.28987
O         56.16903       46.13124      -15.40003
H         55.12815       43.95404      -14.93243
H         57.82114       42.61707      -14.56898
H         57.43650       43.52565      -16.80888
H         58.77260       44.35745      -15.93880
N         56.59132       44.84956      -12.58838
C         56.85772       45.51633      -11.32449
C         57.73553       46.74515      -11.44023
O         57.45017       47.62538      -12.23911
H         55.59889       44.72327      -12.82932
H         57.31074       44.78672      -10.61840
H         55.88573       45.83297      -10.88880
N         58.78574       46.89408      -10.58163
C         59.60269       48.10296      -10.48827
C         60.70823       48.19130      -11.53451
O         61.44325       49.16992      -11.50132
C         60.18273       48.26556       -9.05156
C         61.04152       47.14724       -8.50514
O         61.20859       46.10386       -9.11304
O         61.60076       47.29045       -7.28896
H         58.90714       46.16465       -9.86502
H         58.94568       48.99038      -10.62740
H         59.33604       48.39070       -8.34377
H         60.77946       49.20344       -9.01974
N         60.91036       47.23659      -12.48911
C         62.02699       47.30505      -13.42253
C         63.36599       47.04519      -12.74997
O         64.38007       47.12262      -13.42796
H         60.26928       46.43805      -12.56582
H         62.02396       48.29490      -13.92934
H         61.90470       46.52266      -14.20291
N         63.44046       46.66683      -11.43725
C         64.65686       46.31548      -10.71847
C         65.29894       45.04120      -11.25300
O         66.35806       44.67998      -10.75868
C         65.61194       47.52573      -10.60107
C         64.91598       48.66993       -9.83039
C         65.80297       49.85172       -9.53167
N         65.30669       50.89272       -8.82228
O         66.96517       49.87605       -9.90958
H         62.58164       46.58207      -10.89845
H         64.38047       46.05456       -9.67123
H         65.95529       47.87648      -11.59689
H         66.50518       47.21227      -10.01688
H         64.55902       48.27561       -8.85355
H         64.03689       49.02835      -10.40709
H         64.33047       50.88318       -8.48981
H         65.89748       51.70644       -8.59636
N         64.67522       44.25710      -12.18698
C         65.20279       42.98098      -12.65545
C         64.27365       41.81277      -12.32368
O         64.67348       40.69117      -12.60487
C         65.49096       43.03228      -14.18403
C         64.23304       43.32497      -15.02240
C         66.58372       44.06102      -14.50133
H         63.76755       44.54568      -12.56954
H         66.16356       42.75422      -12.14254
H         65.88099       42.03738      -14.49500
H         63.44843       42.56741      -14.82432
H         63.82283       44.33351      -14.80652
H         64.47906       43.28450      -16.10440
H         66.25999       45.08645      -14.22495
H         67.51179       43.81454      -13.94269
H         66.82100       44.04306      -15.58656
N         63.03940       41.96936      -11.74482
C         62.16421       40.83448      -11.44474
C         61.82260       40.77046       -9.96821
O         62.04501       41.72944       -9.24152
C         60.85868       40.93545      -12.25964
C         61.11621       40.89922      -13.74482
N         60.76077       41.93787      -14.53613
O         61.64350       39.91488      -14.24070
H         62.68762       42.91004      -11.51803
H         62.67056       39.87868      -11.70078
H         60.33128       41.87590      -11.98321
H         60.18652       40.08555      -12.01018
H         60.31975       42.77808      -14.13943
H         60.93187       41.90543      -15.55191
N         61.28993       39.62370       -9.45599
C         60.88128       39.48256       -8.06470
C         60.69530       38.01833       -7.70836
O         59.87005       37.34938       -8.31608
C         59.55944       40.24911       -7.82091
C         58.98238       39.96727       -6.44818
C         57.72553       39.34550       -6.32868
C         59.69791       40.29087       -5.28368
C         57.19834       39.04970       -5.06923
C         59.16883       39.99042       -4.02383
C         57.92046       39.36854       -3.91153
O         57.42713       39.08108       -2.69005
H         61.19910       38.80897      -10.08328
H         61.67869       39.89003       -7.40533
H         58.82733       39.92657       -8.59534
H         59.71860       41.34054       -7.94789
H         57.15447       39.07925       -7.20961
H         60.66829       40.76537       -5.35068
H         56.23190       38.56719       -4.99531
H         59.73233       40.23761       -3.13323
H         56.56940       38.64847       -2.57034
N         61.41038       37.48107       -6.67635
C         61.22554       36.12533       -6.18734
C         60.78955       36.19647       -4.73062
O         61.60841       36.60367       -3.91720
C         62.55741       35.35104       -6.31681
C         62.46735       33.90565       -5.80235
C         63.80388       33.22573       -5.89395
O         63.93930       32.22181       -6.57430
O         64.85758       33.71248       -5.20906
H         62.09559       38.07385       -6.18212
H         60.47344       35.61092       -6.80040
H         63.34415       35.89068       -5.74222
H         62.86649       35.33674       -7.38515
H         61.71228       33.34947       -6.39856
H         62.15534       33.89215       -4.73637
N         59.54724       35.85685       -4.27267
C         58.38053       35.49657       -5.07777
C         58.58910       34.20792       -5.85224
O         58.87298       33.18316       -5.24681
C         57.15778       35.33712       -4.13887
C         55.82476       35.19847       -4.88823
C         54.65101       34.95118       -3.96382
O         54.81087       34.76411       -2.76767
O         53.40397       34.94339       -4.47267
H         59.40671       35.94212       -3.25263
H         58.17070       36.33987       -5.77295
H         57.07194       36.24353       -3.49924
H         57.32330       34.45892       -3.47713
H         55.86380       34.35751       -5.61262
H         55.65959       36.14126       -5.45211
N         58.43586       34.18670       -7.20592
C         58.60360       32.97869       -7.98286
H         59.63521       32.58677       -7.85915
H         57.87073       32.21190       -7.65320
H         58.43120       33.19408       -9.05915
H         58.18621       35.05425       -7.70503
Ca        53.27585       35.85755       -6.50954
O         49.89634       36.99389       -8.32007
H         48.91157       36.90830       -8.37660
H         50.04480       37.88662       -7.91803
O         54.48088       33.24769       -8.05698
H         54.73458       33.43184       -8.99628
H         54.32385       32.27038       -8.02861
O         50.16607       35.38102       -5.51289
H         49.34850       35.92103       -5.65537
H         50.57855       35.76608       -4.69926
O         52.08109       32.56061       -5.71477
H         51.09506       32.48219       -5.67366
H         52.37612       32.45515       -4.77557
O         50.50563       33.20703       -8.43637
H         49.59614       33.05957       -8.07338
H         50.89225       32.29847       -8.51266

Ca 1.0



