%chk=apoCaM-CA-Ng.loop2.water4.frame309.chk
%nprocshared=20
%mem=10GB
%nosave
#b3lyp/svp scf=(tight,noincore,xqc) Test 
#IOP(5/87=12) Density=Current Pop=(MK,readradii) iop(6/33=2) iop(6/42=6)

apoCaM-CA-Ng.loop2.water4.frame309 

   -2  1 
C         55.40326       87.74202       21.43325
C         54.76715       89.10184       21.38860
O         53.76084       89.26062       20.71435
H         56.30838       87.73735       22.07723
H         54.68034       87.00241       21.83596
H         55.70241       87.43940       20.40779
N         55.29919       90.13646       22.09592
C         54.74531       91.48597       22.08066
C         54.87567       92.09029       20.69176
O         55.98454       92.15364       20.17703
C         55.49607       92.36677       23.11021
C         54.94842       93.76623       23.26177
O         53.98270       94.14884       22.61978
O         55.53192       94.60786       24.13554
H         56.13017       89.95060       22.67956
H         53.67963       91.44263       22.39982
H         56.56931       92.43449       22.82763
H         55.43069       91.87999       24.10757
N         53.78994       92.61353       20.05076
C         53.91051       93.31527       18.77567
C         54.23135       92.39645       17.60720
O         54.55024       92.91440       16.54589
C         52.62764       94.09460       18.46852
H         52.87649       92.59411       20.53051
H         54.73117       94.06022       18.88104
H         52.74396       94.68155       17.53217
H         51.76705       93.40090       18.35612
H         52.41208       94.80405       19.29598
N         54.13163       91.03547       17.70253
C         54.44482       90.10277       16.62042
C         53.48781       90.23321       15.42828
O         53.67306       89.50721       14.46243
C         55.94531       90.24898       16.24548
C         56.58459       89.10014       15.49617
O         57.78156       89.14739       15.26507
O         55.90862       87.97915       15.18364
H         53.82854       90.61821       18.59155
H         54.31054       89.07540       17.02923
H         56.51227       90.30688       17.20154
H         56.11308       91.19197       15.68753
N         52.41515       91.09218       15.42635
C         51.47914       91.18201       14.31401
C         50.66357       89.91705       14.11547
O         49.97859       89.82933       13.10653
H         52.23065       91.71059       16.22533
H         52.05863       91.40171       13.39040
H         50.76849       92.02163       14.47560
N         50.70031       88.89036       15.01496
C         50.08822       87.58816       14.79169
C         49.10921       87.28160       15.91941
O         49.46430       87.46047       17.07679
C         51.25188       86.58765       14.66097
C         50.88316       85.23765       14.10464
N         51.86713       84.39619       13.71134
O         49.71457       84.91273       13.95958
H         51.24980       88.99254       15.88014
H         49.54905       87.57067       13.81886
H         51.81475       86.48547       15.61535
H         51.94122       87.02961       13.90968
H         52.85619       84.67553       13.79206
H         51.64554       83.47874       13.29942
N         47.84426       86.83910       15.64987
C         46.79680       86.71791       16.65905
C         46.48074       85.27969       16.98896
O         46.17607       84.51083       16.08749
H         47.59285       86.61161       14.67569
H         45.88440       87.21846       16.27178
H         47.08278       87.24976       17.59026
N         46.55670       84.84883       18.28552
C         46.37636       83.45736       18.68925
C         47.71538       82.83418       19.04643
O         47.76287       81.62577       19.22282
C         45.34830       83.31152       19.84624
C         45.80430       83.92910       21.18232
O         44.09907       83.82857       19.46360
H         46.82470       85.53051       19.01107
H         45.99509       82.87223       17.82367
H         45.20831       82.22566       20.04400
H         44.16892       84.81883       19.46073
H         46.73322       83.44051       21.53432
H         45.97883       85.02087       21.09333
H         45.02886       83.76228       21.95965
N         48.85110       83.59152       19.13046
C         50.18218       83.04029       19.31677
C         51.00536       83.41412       18.10063
O         50.66544       84.35811       17.39878
C         50.81147       83.60131       20.63265
C         49.93375       83.30887       21.87514
C         52.25274       83.11650       20.87551
C         49.73287       81.82346       22.19252
H         48.80372       84.61272       19.02068
H         50.13633       81.93192       19.35949
H         50.86049       84.71042       20.54047
H         48.94295       83.78007       21.73061
H         50.39198       83.79595       22.76320
H         52.64346       83.53794       21.82584
H         52.30621       82.00951       20.91986
H         52.92963       83.47376       20.07736
H         50.69964       81.32704       22.41144
H         49.08651       81.72671       23.08935
H         49.23300       81.29511       21.35806
N         52.11301       82.69566       17.79016
C         52.99866       83.03991       16.69537
C         53.06519       81.89500       15.68453
O         54.00160       81.83290       14.90034
C         54.35709       83.37624       17.33615
C         55.30596       84.08010       16.42441
O         54.98536       84.36903       15.28269
O         56.50958       84.45142       16.90007
H         52.36229       81.88102       18.37197
H         52.64789       83.95383       16.17390
H         54.82072       82.45419       17.74867
H         54.18675       84.09121       18.16966
N         52.06940       80.96276       15.62568
C         52.10033       79.80079       14.74647
C         53.24272       78.89071       15.16219
O         53.27816       78.51143       16.32551
C         50.73726       79.05987       14.82095
C         50.69394       77.76931       14.02785
C         50.00509       77.69788       12.80459
C         51.32231       76.61002       14.52266
C         49.96601       76.49690       12.08586
C         51.27572       75.41364       13.80601
C         50.60129       75.35686       12.58615
H         51.24678       81.07579       16.23650
H         52.21040       80.13528       13.69392
H         49.97446       79.76759       14.42516
H         50.44997       78.83089       15.87068
H         49.50680       78.57038       12.40155
H         51.83763       76.62046       15.47219
H         49.44150       76.44808       11.14075
H         51.76018       74.52988       14.20136
H         50.56740       74.42755       12.03261
N         54.18574       78.44130       14.27607
C         55.18145       77.44418       14.62685
C         56.36523       78.02592       15.37649
O         57.15514       77.24462       15.88874
C         55.59486       76.87742       13.26582
C         55.52401       78.11157       12.38586
C         54.22358       78.75726       12.86165
H         54.72912       76.62940       15.23628
H         56.55822       76.32400       13.25390
H         54.79086       76.19007       12.91494
H         56.37318       78.77313       12.67245
H         55.57378       77.93183       11.29147
H         54.25763       79.84897       12.65602
H         53.33528       78.29543       12.37648
N         56.58856       79.37018       15.45632
C         57.72612       79.91883       16.18602
C         57.53079       79.79289       17.69628
O         58.46762       80.08956       18.42555
C         57.94991       81.39975       15.81633
C         58.32672       81.61005       14.33162
C         58.44448       83.08435       14.04817
O         59.50691       83.57794       13.70825
O         57.36109       83.85575       14.25753
H         55.96133       80.01600       14.95687
H         58.64306       79.35911       15.89399
H         58.77692       81.81507       16.43494
H         57.02069       81.95503       16.05865
H         57.54781       81.18745       13.66345
H         59.29025       81.09489       14.12205
N         56.34980       79.38345       18.24780
C         56.16733       79.26350       19.67823
H         55.12911       78.93517       19.90129
H         56.87237       78.50982       20.08832
H         56.34062       80.24434       20.16960
H         55.54051       79.16055       17.65325
Ca        57.07286       86.08652       14.66274
O         54.48988       87.09817       12.35769
H         53.63290       87.11238       11.86248
H         54.22747       87.15892       13.30935
O         56.70717       85.42474       11.26286
H         56.60969       85.83477       10.36671
H         56.19804       84.57749       11.20588
O         58.63399       87.64067       12.47620
H         58.90739       87.64902       11.52490
H         58.73403       88.58025       12.77105
O         60.02267       86.52705       15.40915
H         60.56078       87.21546       14.94490
H         59.77416       85.89321       14.69237

Ca 1.0



