%chk=apoCaM-CA-Ng.loop1.water3.frame1162.chk
%nprocshared=20
%mem=10GB
%nosave
#b3lyp/svp scf=(tight,noincore,xqc) Test 
#IOP(5/87=12) Density=Current Pop=(MK,readradii) iop(6/33=2) iop(6/42=6)

apoCaM-CA-Ng.loop1.water3.frame1162 

   0  1 
C         97.23967       47.28389      107.53768
C         97.70483       48.69510      107.73773
O         96.89681       49.60666      107.62980
H         96.16110       47.25862      107.27012
H         97.81925       46.80767      106.71893
H         97.38875       46.71041      108.47575
N         99.01772       48.94852      108.00708
C         99.55268       50.29254      108.19434
C        100.37017       50.68220      106.98046
O        101.56550       50.92649      107.06408
C        100.27450       50.45288      109.55011
C        101.50126       49.60084      109.72694
O        102.69952       50.18672      109.91378
O        101.41901       48.38394      109.74334
H         99.66937       48.15099      108.02902
H         98.72826       51.02604      108.23050
H         99.55937       50.22891      110.37111
H        100.56984       51.52156      109.64831
N         99.71029       50.81620      105.80004
C        100.31392       51.21590      104.54117
C        100.09427       52.68773      104.20612
O        101.07621       53.30096      103.80972
C         99.78583       50.34289      103.38805
C        100.17210       48.87265      103.57199
C         99.66473       48.01761      102.40716
C        100.11734       46.56262      102.57660
N         99.62826       45.72845      101.48073
H         98.70135       50.62410      105.80779
H        101.41746       51.06113      104.57822
H        100.23461       50.70178      102.43408
H         98.68199       50.44043      103.30536
H         99.74400       48.48545      104.52212
H        101.28113       48.80102      103.62106
H        100.06801       48.41379      101.44881
H         98.55381       48.06390      102.37290
H         99.73374       46.16283      103.54153
H        101.22977       46.52492      102.59726
H         99.96853       44.74983      101.62102
H         98.58245       45.72608      101.47197
H         99.98978       46.08523      100.56640
N         98.90203       53.36183      104.25733
C         97.67229       52.92528      104.92588
C         97.83371       53.11352      106.44665
O         98.89967       53.54083      106.87279
C         96.42690       53.69115      104.40307
C         96.47612       55.14312      104.72901
O         95.82581       55.61682      105.80217
O         97.25567       55.87483      104.14186
H         98.94561       54.33342      103.92660
H         97.45503       51.87584      104.65969
H         95.53080       53.25955      104.88902
H         96.29402       53.56047      103.30821
N         96.82287       52.83558      107.32493
C         96.96697       52.97157      108.77362
C         96.04482       54.01107      109.36254
O         95.30428       54.65365      108.63626
H         95.91736       52.49958      106.96664
H         98.00254       53.25645      109.05753
H         96.74595       51.98980      109.24458
N         96.05840       54.22931      110.70831
C         95.21545       55.21093      111.39446
C         94.29753       54.49086      112.37672
O         94.47849       53.29367      112.55897
C         96.13940       56.21254      112.12007
C         97.01205       56.94889      111.14719
O         98.35207       56.84654      111.23011
O         96.50968       57.64985      110.28342
H         96.70469       53.66518      111.28457
H         94.57508       55.74719      110.66316
H         96.77858       55.66280      112.84727
H         95.57154       56.96918      112.68290
N         93.26856       55.08311      113.05471
C         92.80568       56.46119      112.96650
C         92.23450       56.82138      111.61214
O         91.43765       56.06292      111.08007
H         92.73484       54.48091      113.70235
H         93.56719       57.18336      113.31157
H         91.96126       56.56634      113.68231
N         92.50206       58.04049      111.06178
C         91.85521       58.53736      109.84661
C         92.41751       57.87035      108.60144
O         93.62819       57.74713      108.48972
C         91.96283       60.07811      109.76883
C         91.16562       60.64468      108.58567
O         93.30489       60.47625      109.68231
H         93.10615       58.68530      111.59503
H         90.76148       58.34080      109.92345
H         91.50909       60.47731      110.70834
H         93.34882       61.40576      110.02969
H         90.10066       60.33260      108.65527
H         91.20287       61.75384      108.60037
H         91.58148       60.28843      107.62009
N         91.57095       57.44252      107.61493
C         91.96013       56.73716      106.39200
C         92.85151       57.57365      105.47230
O         93.89490       58.04665      105.89711
C         92.61438       55.36613      106.71555
C         91.81348       54.54359      107.75957
C         92.83246       54.54034      105.43230
C         90.37168       54.21488      107.36178
H         90.56031       57.59897      107.74857
H         91.02587       56.50942      105.83347
H         93.60615       55.55702      107.16286
H         91.78386       55.10400      108.71491
H         92.35428       53.59366      107.96194
H         93.48716       55.07734      104.71621
H         93.31730       53.57367      105.68116
H         91.87253       54.33555      104.91587
H         89.77897       55.14044      107.21174
H         90.33852       53.60088      106.43990
H         89.89273       53.63591      108.17869
N         92.53982       57.70009      104.14865
C         93.42862       58.35786      103.18956
C         93.44512       59.87760      103.31490
O         94.22377       60.49870      102.60372
C         93.07063       57.96307      101.72757
C         91.69237       58.46314      101.27080
O         93.11600       56.56641      101.58488
H         91.70488       57.20692      103.80188
H         94.45501       57.97214      103.36617
H         93.81295       58.42646      101.03330
H         94.06930       56.31928      101.45559
H         91.63611       59.57062      101.32528
H         91.52155       58.16445      100.21458
H         90.87609       58.03326      101.88520
N         92.57354       60.55379      104.11971
C         92.46125       62.01046      104.09096
C         93.74399       62.67119      104.57492
O         94.03848       62.60370      105.75979
C         91.23251       62.46846      104.92139
C         91.03888       63.98579      104.91412
O         90.06741       61.87826      104.39706
H         91.90870       60.01901      104.69556
H         92.27378       62.30593      103.03380
H         91.37546       62.16498      105.98573
H         89.83832       61.09963      104.96922
H         91.91475       64.49994      105.36186
H         90.88901       64.35267      103.87709
H         90.14316       64.24520      105.51879
N         94.56382       63.31645      103.68916
C         95.79254       64.01389      104.05752
C         96.71550       63.13620      104.86401
O         96.95945       63.42810      106.02869
C         95.50253       65.35153      104.76678
C         94.84301       66.34113      103.80083
C         94.80299       67.75286      104.38971
C         94.26043       68.74482      103.35404
N         94.28993       70.11113      103.87079
H         94.32029       63.29711      102.68746
H         96.35377       64.28187      103.13402
H         96.48546       65.78600      105.06034
H         94.89325       65.21343      105.68671
H         93.82173       65.99318      103.53342
H         95.45819       66.38774      102.87441
H         95.83861       68.05946      104.65960
H         94.17579       67.76709      105.30720
H         93.21773       68.46785      103.08366
H         94.88643       68.69678      102.43391
H         95.27389       70.38667      104.09632
H         93.91943       70.75901      103.13868
H         93.69570       70.18491      104.72764
N         97.30528       62.05649      104.28308
C         98.22245       61.20006      105.01433
C         97.67128       59.77514      105.13664
O         98.17456       59.18946      106.29816
C         99.67200       61.30729      104.50906
C        100.25040       62.69793      104.79174
C        101.69253       62.76478      104.38504
O        102.59449       61.94493      104.95934
O        102.05745       63.56889      103.54314
H         97.10393       61.86425      103.29326
H         98.26638       61.53320      106.07452
H         99.74455       61.12304      103.42223
H        100.28638       60.55593      105.05387
H        100.18690       62.91628      105.87997
H         99.66166       63.46387      104.24135
N         97.59922       58.81627      104.00877
C         98.19365       59.14930      102.71218
H         99.29865       59.12931      102.76970
H         97.91836       58.36393      101.97473
H         97.80784       60.10110      102.30537
H         96.59041       58.59901      103.85810
Ca        97.09530       57.26550      106.50434
O         95.46566       60.22836      107.55545
H         95.40668       61.03270      108.12927
H         94.73655       60.34075      106.89632
O         99.35627       56.28550      108.08323
H         98.54393       55.83962      108.43270
H         99.54945       56.99917      108.74075
O         98.08832       59.84950      109.04714
H         98.62517       59.26518      109.63801
H         98.76008       60.37180      108.54141

Ca 1.0



