%chk=apoCaM-CA-Ng.loop1.water3.frame695.chk
%nprocshared=20
%mem=10GB
%nosave
#b3lyp/svp scf=(tight,noincore,xqc) Test 
#IOP(5/87=12) Density=Current Pop=(MK,readradii) iop(6/33=2) iop(6/42=6)

apoCaM-CA-Ng.loop1.water3.frame695 

   0  1 
C         53.46478       73.49117       96.06573
C         53.22478       73.82948       97.50764
O         52.11804       73.62655       97.98464
H         54.51516       73.69666       95.76820
H         53.26004       72.41275       95.90148
H         52.79059       74.09590       95.42501
N         54.22057       74.36956       98.26273
C         54.06423       74.69319       99.68220
C         55.17817       75.62724      100.17781
O         56.10297       75.91121       99.42865
C         53.87524       73.39137      100.51062
C         54.88827       72.30202      100.24115
O         55.90302       72.48470       99.37432
O         54.80403       71.24437      100.84545
H         55.11994       74.55836       97.79535
H         53.14932       75.31406       99.79543
H         52.88606       72.95442      100.26325
H         53.86223       73.63314      101.59485
N         55.08656       76.23821      101.40247
C         55.97938       77.32501      101.81717
C         56.83969       76.92214      102.99885
O         56.31925       76.53733      104.03611
C         55.17549       78.61229      102.12318
C         56.12307       79.78446      102.46255
C         55.39731       81.12493      102.63618
C         56.41687       82.23872      102.93757
N         55.76893       83.54329      103.06256
H         54.31320       75.98021      102.03426
H         56.65375       77.59288      100.97570
H         54.46360       78.44388      102.96125
H         54.59009       78.87801      101.21533
H         56.85829       79.89672      101.63579
H         56.67623       79.55465      103.39948
H         54.66176       81.05537      103.46708
H         54.85589       81.37131      101.69673
H         57.16257       82.28887      102.11370
H         56.95726       82.00491      103.88242
H         55.27959       83.78807      102.17122
H         55.08598       83.53436      103.85398
H         56.49954       84.26756      103.25310
N         58.19576       77.03630      102.89142
C         59.15445       76.68354      103.94031
C         60.58104       77.01388      103.50805
O         60.84901       77.05542      102.31594
C         59.09452       75.17068      104.27183
C         59.17700       74.31493      103.03965
O         58.15753       74.37396      102.17320
O         60.08529       73.51736      102.87166
H         58.55986       77.41490      102.00512
H         58.91543       77.28297      104.84330
H         58.13490       74.92458      104.77074
H         59.90563       74.89041      104.97191
N         61.60027       77.17459      104.39727
C         61.47441       77.22654      105.84460
C         60.95060       78.55735      106.33337
O         60.53229       79.38781      105.54223
H         62.55318       77.27878      104.01540
H         62.50337       77.15743      106.25877
H         60.90081       76.37406      106.25588
N         61.03257       78.84230      107.66183
C         60.73455       80.14999      108.24237
C         61.60778       81.23611      107.62244
O         62.82219       81.08550      107.59518
C         60.92498       80.13606      109.78374
C         62.33000       79.83717      110.25693
O         62.85311       78.75829      110.02932
O         63.00577       80.75646      110.97202
H         61.36960       78.09035      108.27886
H         59.66379       80.39182      108.06191
H         60.23477       79.39018      110.23307
H         60.63402       81.13699      110.17329
N         61.05039       82.39047      107.15241
C         61.84720       83.49089      106.62878
C         62.38941       83.25763      105.23213
O         63.14515       84.10102      104.77042
H         60.03427       82.53431      107.25258
H         62.67492       83.70675      107.33926
H         61.21631       84.40445      106.56968
N         62.00384       82.19221      104.47174
C         62.44325       81.97912      103.09405
C         63.10080       80.62124      102.92822
O         63.12097       79.83776      103.86797
C         61.23726       82.12922      102.12419
C         60.13342       81.08420      102.34870
O         60.67490       83.40841      102.25903
H         61.32980       81.52828      104.86336
H         63.19969       82.74317      102.81049
H         61.58373       81.99470      101.07379
H         61.29316       84.04287      101.81046
H         60.53084       80.05423      102.23182
H         59.67689       81.18504      103.35467
H         59.33035       81.22646      101.59583
N         63.65487       80.27344      101.72800
C         64.22510       78.95092      101.46789
C         65.43437       78.68073      102.36126
O         65.83644       77.53193      102.47012
C         64.58150       78.76642       99.94918
C         63.40632       79.11865       98.98905
C         65.08669       77.34273       99.62792
C         62.11161       78.34340       99.23992
H         63.63845       80.97456      100.97613
H         63.44131       78.20805      101.73219
H         65.40906       79.46706       99.69702
H         63.73460       78.94091       97.94155
H         63.16484       80.19799       99.04656
H         64.33309       76.57581       99.90232
H         65.31394       77.25110       98.54466
H         66.03421       77.11338      100.15141
H         62.26719       77.25084       99.14034
H         61.70829       78.57419      100.24657
H         61.35128       78.65609       98.49401
N         66.04673       79.68296      103.05526
C         67.17416       79.46232      103.94888
C         68.36702       80.29306      103.50971
O         68.28023       81.03035      102.53747
C         66.74123       79.74031      105.41193
C         66.25272       81.17422      105.65334
O         65.71676       78.84020      105.75049
H         65.71195       80.65040      102.95837
H         67.50503       78.40124      103.91256
H         67.61886       79.55444      106.07191
H         65.73723       78.73014      106.73694
H         65.99549       81.29835      106.72646
H         67.04403       81.90771      105.39427
H         65.33908       81.39195      105.06277
N         69.53296       80.19772      104.20211
C         70.74156       80.93353      103.87167
C         71.87534       79.95656      103.62518
O         72.51025       80.04822      102.58273
C         71.06538       81.94029      105.00822
C         72.29651       82.79810      104.69438
O         71.27158       81.28572      106.23399
H         69.56199       79.57317      105.01849
H         70.59813       81.54487      102.95159
H         70.20767       82.65040      105.09600
H         70.39209       81.23639      106.69180
H         72.45457       83.53845      105.50794
H         73.20910       82.17015      104.61269
H         72.15181       83.35265      103.74265
N         72.20829       79.01954      104.56183
C         73.40646       78.20099      104.48458
C         73.06218       76.72180      104.52230
O         72.34732       76.30750      105.42614
C         74.28187       78.58791      105.69814
C         75.79214       78.39695      105.50039
C         76.33873       79.41280      104.46794
C         77.86839       79.46496      104.37730
N         78.47969       79.96540      105.61101
H         71.64539       78.93969      105.42124
H         73.94777       78.42979      103.54889
H         73.92253       78.04638      106.60187
H         74.14866       79.67034      105.92187
H         76.04083       77.35099      105.21755
H         76.24859       78.61170      106.48706
H         75.98382       80.43651      104.72348
H         75.95683       79.16439      103.45805
H         78.12763       80.16602      103.55193
H         78.27448       78.46310      104.12114
H         78.07639       80.89811      105.86207
H         78.34067       79.29425      106.39798
H         79.50710       80.07862      105.45751
N         73.57355       75.85114      103.60487
C         73.29685       74.41717      103.66221
C         71.82456       74.12428      103.39037
O         71.20252       73.53787      104.26474
C         74.23172       73.58026      102.75383
C         75.70506       73.73362      103.17635
C         76.60190       72.80914      102.40502
O         76.68887       72.90145      101.19118
O         77.32857       71.87989      103.05606
H         74.22016       76.21290      102.88776
H         73.52679       74.06342      104.69454
H         74.12146       73.83405      101.68125
H         73.95318       72.50902      102.87745
H         75.80264       73.49295      104.25783
H         76.04711       74.77783      103.01937
N         71.15503       74.47623      102.25141
C         71.69743       75.20775      101.12483
H         72.75622       75.48317      101.24115
H         71.59295       74.59492      100.20520
H         71.12154       76.14762      100.99353
H         70.15798       74.21818      102.18177
Ca        57.75083       72.99696      100.48370
O         58.61170       70.17503      100.92914
H         58.59112       70.55973      101.84156
H         57.66608       70.18497      100.63474
O         61.11184       73.23717       99.22992
H         61.52378       72.39707       99.55355
H         61.86989       73.86851       99.14247
O         59.26335       75.83875       99.66538
H         60.12262       75.70302      100.13746
H         59.30653       76.77076       99.33480

Ca 1.0



