%chk=apoCaM-CA-Ng.loop2.water3.frame841.chk
%nprocshared=20
%mem=10GB
%nosave
#b3lyp/svp scf=(tight,noincore,xqc) Test 
#IOP(5/87=12) Density=Current Pop=(MK,readradii) iop(6/33=2) iop(6/42=6)

apoCaM-CA-Ng.loop2.water3.frame841 

   -2  1 
C         49.05354      -15.37350       85.05561
C         48.03198      -15.73952       84.01920
O         46.85018      -15.74030       84.33409
H         50.08140      -15.38578       84.63628
H         48.84165      -14.34759       85.42628
H         49.00291      -16.08418       85.90586
N         48.41033      -16.04361       82.74307
C         47.44637      -16.34183       81.68421
C         46.58017      -15.11720       81.35328
O         45.60460      -15.26966       80.63355
C         48.20638      -16.88229       80.44451
C         47.33477      -17.39521       79.32581
O         46.63521      -16.63560       78.67666
O         47.37389      -18.69955       78.99218
H         49.41869      -16.06794       82.52365
H         46.78921      -17.16034       82.05679
H         48.82775      -17.73836       80.79079
H         48.89296      -16.10486       80.04533
N         46.85208      -13.88017       81.87051
C         46.04045      -12.69415       81.63122
C         46.93888      -11.57154       81.12382
O         47.86714      -11.22897       81.84388
C         45.39140      -12.27803       82.95350
H         47.66709      -13.75111       82.48457
H         45.21202      -12.91574       80.93208
H         44.75013      -13.10377       83.33098
H         46.16448      -12.06107       83.72280
H         44.76105      -11.37617       82.80749
N         46.79281      -10.93658       79.92202
C         45.78739      -11.24694       78.91076
C         46.28770      -10.94657       77.50003
O         47.36156      -10.38876       77.32914
C         44.44649      -10.53123       79.20427
C         44.50247       -9.01952       79.27937
O         45.66342       -8.33239       79.29977
O         43.45637       -8.40021       79.38552
H         47.49744      -10.21702       79.69979
H         45.62967      -12.34604       78.89378
H         44.02371      -10.89825       80.16315
H         43.72656      -10.80530       78.40381
N         45.56855      -11.38127       76.42790
C         46.00839      -11.24669       75.04982
C         44.89105      -10.70766       74.19520
O         44.36390      -11.47527       73.40229
H         44.69861      -11.91072       76.59556
H         46.24015      -12.27376       74.69026
H         46.93380      -10.64561       74.93755
N         44.41631       -9.43430       74.27556
C         44.97832       -8.34886       75.07466
C         46.32257       -7.93584       74.48047
O         46.37549       -7.69702       73.28158
C         43.97005       -7.17205       75.03759
C         44.29740       -6.00057       75.91789
N         43.44652       -4.95048       75.97473
O         45.31217       -5.99346       76.58877
H         43.59430       -9.21816       73.68751
H         45.06997       -8.66397       76.13746
H         42.98653       -7.55644       75.38643
H         43.85651       -6.80769       73.99384
H         42.57730       -4.94990       75.42327
H         43.64615       -4.13526       76.56814
N         47.44391       -7.81225       75.25042
C         48.75918       -7.49277       74.69812
C         49.24748       -6.09695       75.03865
O         50.35491       -5.76331       74.64333
H         47.36722       -7.94444       76.26972
H         48.75557       -7.56003       73.58997
H         49.48613       -8.24612       75.07168
N         48.47652       -5.21702       75.73344
C         48.86908       -3.84933       76.05698
C         48.94242       -3.68947       77.56247
O         48.67369       -4.63897       78.28541
C         47.84074       -2.85411       75.44345
C         47.88905       -2.85906       73.91603
O         46.53439       -3.16829       75.85315
H         47.55399       -5.51764       76.05805
H         49.87864       -3.60833       75.65844
H         48.07989       -1.80681       75.73715
H         46.42953       -2.81563       76.77316
H         48.89920       -2.55464       73.56778
H         47.64845       -3.86392       73.51150
H         47.15081       -2.12934       73.51748
N         49.27344       -2.48399       78.10443
C         49.26098       -2.22878       79.53471
C         48.01995       -1.40968       79.81364
O         47.86808       -0.32211       79.27598
C         50.59236       -1.56723       79.99167
C         50.57790       -1.10491       81.47467
C         51.77187       -2.52379       79.73057
C         50.34574       -2.21634       82.49666
H         49.46522       -1.68720       77.47917
H         49.16345       -3.18257       80.09102
H         50.75731       -0.65055       79.38336
H         49.78088       -0.34207       81.60760
H         51.54647       -0.61338       81.71171
H         51.84457       -2.77045       78.65091
H         52.72910       -2.05407       80.04044
H         51.64608       -3.47712       80.28682
H         50.32767       -1.78478       83.51931
H         49.37232       -2.69175       82.30537
H         51.14166       -2.98626       82.46082
N         47.06065       -1.93135       80.62630
C         45.76544       -1.32477       80.88350
C         45.65844       -0.83910       82.31678
O         44.61935       -0.29101       82.66681
C         44.67481       -2.36545       80.56735
C         44.66488       -2.71424       79.10671
O         44.42570       -1.83320       78.29595
O         44.84604       -3.97286       78.64946
H         47.24397       -2.82999       81.09036
H         45.61458       -0.42487       80.24493
H         43.67445       -1.94565       80.81192
H         44.83006       -3.27543       81.18423
N         46.71308       -0.92179       83.17540
C         46.74176       -0.30933       84.48925
C         47.18252       -1.32913       85.53800
O         48.31472       -1.78537       85.43546
C         47.75562        0.84924       84.40138
C         48.00868        1.54133       85.71040
C         49.29159        1.49034       86.28096
C         46.98809        2.24770       86.36499
C         49.55013        2.13393       87.49067
C         47.25270        2.89531       87.57587
C         48.53222        2.83764       88.13804
H         47.59228       -1.35157       82.86118
H         45.75158        0.11991       84.73321
H         47.40514        1.59575       83.65468
H         48.71487        0.43596       84.01527
H         50.09249        0.94981       85.79022
H         45.99531        2.30288       85.93586
H         50.54128        2.08695       87.92239
H         46.46703        3.44409       88.07753
H         48.73703        3.33896       89.07414
N         46.39584       -1.71862       86.59428
C         46.84212       -2.57642       87.69225
C         47.46096       -3.92642       87.35150
O         47.94450       -4.57304       88.27050
C         45.56300       -2.81874       88.49963
C         44.83728       -1.50947       88.32981
C         45.05756       -1.21237       86.84917
H         47.59118       -1.98291       88.26316
H         44.94637       -3.59203       87.98251
H         45.73043       -3.14022       89.54954
H         43.77372       -1.50226       88.64977
H         45.39554       -0.75223       88.92734
H         44.34334       -1.75300       86.19020
H         44.95980       -0.11362       86.72906
N         47.47551       -4.43639       86.08856
C         48.08442       -5.73018       85.77189
C         49.59019       -5.77220       86.02184
O         50.14782       -6.86052       85.97452
C         47.80961       -6.10282       84.30000
C         48.50751       -5.13260       83.32898
C         48.10147       -5.38946       81.91986
O         46.80831       -5.27046       81.57485
O         48.93445       -5.67601       81.07680
H         46.98978       -3.91768       85.34626
H         47.59645       -6.49008       86.42237
H         46.70919       -6.07789       84.13925
H         48.16152       -7.13797       84.09377
H         49.61202       -5.22337       83.42509
H         48.22025       -4.09146       83.56139
N         50.32189       -4.63765       86.22579
C         51.75937       -4.63540       86.40640
H         52.22845       -4.05306       85.58490
H         52.00741       -4.15416       87.37467
H         52.19239       -5.65752       86.39907
H         49.86206       -3.71827       86.21861
Ca        45.53150       -6.05577       79.27987
O         46.97373       -8.17793       81.76105
H         46.67210       -8.91215       82.35033
H         47.95000       -8.31284       81.66506
O         48.70090       -7.70246       78.70353
H         49.38015       -7.64453       79.42031
H         48.96596       -8.50230       78.18558
O         43.75003       -5.82597       81.45294
H         42.96916       -5.24869       81.26123
H         43.40807       -6.52625       82.06222

Ca 1.0



