%chk=apoCaM-CA-Ng.loop1.water3.frame1350.chk
%nprocshared=20
%mem=10GB
%nosave
#b3lyp/svp scf=(tight,noincore,xqc) Test 
#IOP(5/87=12) Density=Current Pop=(MK,readradii) iop(6/33=2) iop(6/42=6)

apoCaM-CA-Ng.loop1.water3.frame1350 

   0  1 
C         54.16501       39.67878       88.67800
C         53.83827       41.09202       89.05237
O         54.01010       41.96014       88.21010
H         53.56099       39.38550       87.79379
H         55.24269       39.60831       88.41555
H         53.95316       38.97710       89.50971
N         53.39243       41.40766       90.30630
C         53.10469       42.78194       90.71676
C         54.15211       43.27842       91.69343
O         53.83501       43.90016       92.70010
C         51.65265       42.92956       91.21602
C         51.32225       42.14456       92.46449
O         50.19131       42.19758       92.91862
O         52.24842       41.39904       93.09974
H         53.30241       40.65171       90.99917
H         53.20662       43.44998       89.84088
H         50.97124       42.60289       90.40135
H         51.45249       44.00437       91.41971
N         55.45765       43.04604       91.41156
C         56.57484       43.57214       92.17765
C         56.65069       45.08813       92.00719
O         56.67803       45.75907       93.02722
C         57.87939       42.81986       91.81204
C         57.71824       41.33319       92.20775
C         58.88514       40.43870       91.78908
C         58.57664       38.98470       92.19329
N         59.61591       38.06615       91.73644
H         55.66880       42.46033       90.58964
H         56.41827       43.35435       93.26037
H         58.73850       43.24702       92.37465
H         58.09916       42.90753       90.72890
H         56.81079       40.91607       91.72392
H         57.58067       41.26617       93.31036
H         59.82705       40.77841       92.27164
H         59.00191       40.49451       90.68493
H         57.60583       38.67204       91.74529
H         58.48231       38.91774       93.30068
H         59.36107       37.09524       92.03120
H         59.68042       38.09320       90.69287
H         60.53641       38.32181       92.16001
N         56.60109       45.74614       90.80317
C         56.48732       45.13792       89.47972
C         55.09980       45.36728       88.89243
O         54.28302       46.03310       89.51854
C         57.57517       45.68596       88.55013
C         57.41030       47.15574       88.28776
O         56.26396       47.63308       87.76370
O         58.32966       47.91437       88.51515
H         56.57900       46.77859       90.84061
H         56.64147       44.05310       89.52618
H         57.52654       45.16015       87.57307
H         58.57796       45.47918       88.98743
N         54.74883       44.80509       87.70098
C         53.39953       44.89631       87.16706
C         53.09649       46.19076       86.44878
O         53.98888       46.97299       86.16204
H         55.42076       44.18500       87.22196
H         52.67186       44.72636       87.98702
H         53.24234       44.08962       86.41964
N         51.80087       46.44189       86.10509
C         51.34828       47.56834       85.28981
C         50.48101       47.02784       84.13745
O         50.11813       45.86234       84.18209
C         50.52649       48.51938       86.19229
C         51.37816       49.13114       87.26756
O         52.32511       49.84163       86.96898
O         51.08567       48.91989       88.56473
H         51.08283       45.78620       86.44845
H         52.22220       48.11023       84.87076
H         49.68717       47.95534       86.65400
H         50.08090       49.35599       85.63240
N         50.07269       47.77864       83.06625
C         50.51089       49.12886       82.77396
C         51.96611       49.16688       82.38001
O         52.54947       48.12773       82.09956
H         49.42928       47.34043       82.38767
H         50.30954       49.80061       83.62126
H         49.93421       49.53735       81.91529
N         52.61841       50.35697       82.34252
C         54.01546       50.51183       81.94439
C         54.94412       49.59792       82.74195
O         54.80261       49.47972       83.94947
C         54.43084       51.99951       82.03246
C         55.89009       52.22180       81.61690
O         54.22717       52.48329       83.33266
H         52.08692       51.19831       82.62110
H         54.10044       50.22602       80.87246
H         53.77126       52.55528       81.32356
H         54.11829       53.46793       83.26074
H         56.58161       51.70846       82.31861
H         56.06219       51.83496       80.59033
H         56.12520       53.30633       81.63212
N         55.93676       48.93088       82.07946
C         56.87239       47.96823       82.65246
C         57.69884       48.61658       83.80461
O         57.23428       48.11910       85.01881
C         56.13410       46.62908       83.00804
C         55.35012       46.06070       81.79113
C         57.07352       45.54264       83.57835
C         56.21486       45.62128       80.60321
H         56.04655       49.11620       81.07070
H         57.58858       47.72388       81.84116
H         55.37531       46.85150       83.79004
H         54.62939       46.81970       81.42679
H         54.75597       45.18300       82.12648
H         57.54903       45.84414       84.53029
H         56.49109       44.62227       83.79967
H         57.88672       45.29683       82.86713
H         56.90518       44.80284       80.89118
H         55.55738       45.23719       79.79610
H         56.79781       46.46728       80.18790
N         59.12157       48.25788       83.70079
C         59.97328       48.96578       84.67950
C         60.65429       50.17754       84.05123
O         61.87469       50.26152       84.05287
C         60.96730       47.95830       85.31560
C         61.86482       47.24288       84.29810
O         60.24473       46.97809       86.01533
H         59.49193       48.40182       82.73202
H         59.36412       49.35980       85.52701
H         61.63651       48.50840       86.02252
H         60.17319       47.28612       86.95483
H         62.54553       46.54840       84.83458
H         61.25188       46.65150       83.58636
H         62.49266       47.95083       83.72363
N         59.90310       51.19062       83.53592
C         60.48442       52.41413       82.99845
C         60.14294       53.49669       83.99792
O         59.02170       53.98492       84.00716
C         59.97422       52.65492       81.56200
C         60.65695       53.85946       80.90985
O         60.24504       51.51030       80.79233
H         58.87477       51.12451       83.58844
H         61.59234       52.32385       82.94456
H         58.87267       52.82296       81.60561
H         59.59545       51.50292       80.04121
H         60.26740       53.99457       79.87811
H         60.46158       54.78614       81.48697
H         61.75415       53.69037       80.84935
N         60.99855       53.68389       85.04717
C         60.66800       54.33400       86.31393
C         59.56925       53.56630       87.03112
O         58.93169       52.71490       86.42689
C         60.27589       55.81509       86.18245
C         61.35398       56.67894       85.52215
C         60.88129       58.14201       85.48930
C         61.83578       59.08669       84.74568
N         63.13751       59.20480       85.40296
H         61.91981       53.21980       85.01059
H         61.57581       54.26238       86.95597
H         60.08728       56.21538       87.20347
H         59.33166       55.90282       85.60488
H         61.52816       56.31879       84.48512
H         62.29866       56.59308       86.10060
H         60.72874       58.51147       86.52797
H         59.90286       58.18210       84.96229
H         61.36080       60.09265       84.71368
H         61.96920       58.73705       83.69841
H         63.01531       59.53523       86.38777
H         63.64400       58.29171       85.39012
H         63.71271       59.90600       84.88255
N         59.33474       53.77565       88.35758
C         58.31328       53.04238       89.10259
C         58.44404       51.54396       88.87685
O         57.45332       50.95757       88.47178
C         58.32526       53.34769       90.61698
C         58.04881       54.82131       90.94137
C         58.03752       55.03129       92.42876
O         57.14136       54.38273       93.19760
O         58.84072       55.78937       92.94847
H         59.94017       54.44444       88.85523
H         57.31278       53.35327       88.72008
H         59.28921       53.04885       91.07431
H         57.52382       52.73578       91.09043
H         57.06273       55.12237       90.52730
H         58.83095       55.46699       90.49135
N         59.59454       50.82850       89.04825
C         60.87939       51.33276       89.47528
H         61.62026       51.14989       88.66870
H         60.88394       52.40832       89.70389
H         61.19504       50.77854       90.38287
H         59.57808       49.82867       88.82505
Ca        56.24863       49.48476       86.49431
O         54.20734       52.03629       87.91491
H         53.55393       52.64023       87.48017
H         54.33241       52.41242       88.82167
O         56.21320       52.21632       85.33378
H         56.40722       52.91678       86.00425
H         55.28325       51.94417       85.53391
O         54.30357       49.05853       89.35410
H         54.36221       48.66729       90.26138
H         53.62711       49.77540       89.43794

Ca 1.0



