%chk=apoCaM-CA-Ng.loop3.water4.frame191.chk
%nprocshared=20
%mem=10GB
%nosave
#b3lyp/svp scf=(tight,noincore,xqc) Test 
#IOP(5/87=12) Density=Current Pop=(MK,readradii) iop(6/33=2) iop(6/42=6)

apoCaM-CA-Ng.loop3.water4.frame191 

   0  1 
C         68.11680       32.64186       24.81296
C         66.78454       32.07119       24.43035
O         65.89822       32.82413       24.05962
H         68.90347       32.21750       24.15392
H         68.11896       33.74767       24.70205
H         68.34614       32.38575       25.86814
N         66.57452       30.72665       24.49798
C         65.32923       30.06823       24.11168
C         64.14848       30.52394       24.96497
O         63.02577       30.47926       24.47929
C         65.04416       30.25609       22.59558
C         66.13642       29.73477       21.69726
O         66.00198       29.81313       20.48707
O         67.25257       29.17148       22.19970
H         67.34532       30.12754       24.83174
H         65.44188       28.97539       24.28627
H         64.88150       31.33010       22.36498
H         64.11344       29.70973       22.32983
N         64.31814       30.96702       26.24850
C         63.21084       31.45371       27.06744
C         63.41593       32.92621       27.35295
O         63.39933       33.35249       28.50098
C         63.09402       30.64004       28.37249
C         62.84231       29.13808       28.18300
C         61.52199       28.83851       27.46025
C         61.21626       27.33624       27.48667
N         59.96975       27.04417       26.78055
H         65.26527       30.99718       26.65483
H         62.24932       31.38651       26.51619
H         62.26088       31.05488       28.98260
H         64.03608       30.75886       28.95244
H         62.79998       28.69361       29.20144
H         63.68873       28.66872       27.63558
H         61.58368       29.18307       26.40669
H         60.69103       29.37625       27.96681
H         61.12256       27.00437       28.54535
H         62.04892       26.77048       27.01317
H         60.06514       27.29593       25.76993
H         59.76482       26.02189       26.85800
H         59.17845       27.58070       27.20511
N         63.63601       33.77122       26.31474
C         63.82702       35.19899       26.48647
C         62.48061       35.83847       26.80206
O         61.49383       35.47927       26.17463
C         64.48914       35.76937       25.21887
C         64.99054       37.16452       25.42568
O         66.30915       37.42652       25.34722
O         64.21280       38.06532       25.66778
H         63.69483       33.37522       25.36394
H         64.56600       35.37385       27.30234
H         63.80594       35.71404       24.34872
H         65.38217       35.14967       24.99377
N         62.36708       36.79582       27.76188
C         61.10700       37.41744       28.15326
C         60.32177       38.01385       26.99590
O         59.11304       37.83179       26.96701
H         63.22145       37.10679       28.24740
H         61.32278       38.21436       28.89697
H         60.46638       36.66251       28.66105
N         60.93548       38.70374       25.99265
C         60.22601       39.25671       24.83605
C         60.60447       38.56340       23.52303
O         60.11939       38.98477       22.48064
C         60.47021       40.77161       24.72192
C         61.95299       41.11751       24.53834
N         62.10937       42.28909       23.69069
O         62.52011       41.36250       25.79405
H         61.95606       38.80837       26.03018
H         59.12812       39.12144       24.94678
H         60.06313       41.31404       25.60364
H         59.89116       41.12607       23.84137
H         61.81965       42.01196       22.72311
H         63.12802       42.49946       23.63663
N         61.41608       37.47215       23.48846
C         61.77656       36.77450       22.26703
C         62.74621       37.57315       21.43557
O         62.50274       37.78087       20.25655
H         61.77469       37.08149       24.36478
H         60.86736       36.48638       21.69343
H         62.30407       35.83652       22.53996
N         63.89975       38.02128       22.00432
C         64.97068       38.68590       21.27367
C         65.15483       40.11879       21.72546
O         64.58163       40.54288       22.71488
C         66.29513       37.93313       21.55373
C         66.37725       36.58495       20.89555
C         66.50810       36.51262       19.50107
C         66.38125       35.40046       21.65148
C         66.65044       35.27696       18.86834
C         66.51248       34.16201       21.01295
C         66.65379       34.09860       19.61916
O         66.80165       32.91542       18.99171
H         64.03619       37.86371       23.01105
H         64.74615       38.72259       20.18608
H         66.40741       37.83739       22.65666
H         67.17781       38.50824       21.19935
H         66.52614       37.41815       18.90754
H         66.28716       35.43383       22.72904
H         66.76929       35.23739       17.79349
H         66.51583       33.25226       21.59688
H         66.82592       32.07843       19.47464
N         66.01201       40.90848       21.01669
C         66.41159       42.25169       21.41649
C         65.21472       43.19341       21.42554
O         64.90667       43.73192       22.47725
C         67.56142       42.78888       20.49642
C         68.80178       41.84358       20.42640
C         68.01767       44.19692       20.92609
C         69.55707       41.65860       21.74585
H         66.42623       40.49946       20.16950
H         66.82338       42.18854       22.44062
H         67.16138       42.86285       19.46096
H         69.51723       42.24796       19.67826
H         68.51443       40.83930       20.05932
H         68.80173       44.57157       20.23371
H         67.18440       44.91505       20.90965
H         68.41148       44.19775       21.96189
H         69.98903       42.61623       22.09914
H         68.89705       41.24133       22.52848
H         70.39848       40.95152       21.58967
N         64.50490       43.45638       20.29192
C         63.39277       44.40859       20.24246
C         63.85208       45.81914       20.57748
O         63.13286       46.51401       21.28076
C         62.72080       44.41556       18.86100
O         62.10538       43.18107       18.60398
H         64.77956       42.96742       19.42629
H         62.60546       44.10749       20.97129
H         63.44008       44.68146       18.05351
H         61.92185       45.18956       18.84850
H         62.80798       42.56503       18.27449
N         65.06197       46.28576       20.14390
C         65.60367       47.61807       20.43150
C         65.72200       47.95404       21.92149
O         66.09184       49.08829       22.21489
C         64.76046       48.67896       19.71273
H         65.64073       45.66579       19.56098
H         66.62470       47.68018       19.99269
H         65.22005       49.68384       19.83760
H         64.72573       48.45697       18.62508
H         63.72543       48.71450       20.10892
N         65.41247       47.07359       22.91668
C         65.33430       47.43819       24.32363
C         66.26317       46.61448       25.18494
O         66.91500       45.70286       24.68898
C         63.88828       47.22632       24.79202
H         65.16364       46.10660       22.68344
H         65.59858       48.50934       24.46660
H         63.75562       47.52124       25.85319
H         63.19676       47.83589       24.17317
H         63.60456       46.15518       24.68537
N         66.37579       46.90795       26.50979
C         67.18319       46.17522       27.47565
C         68.62928       46.09012       27.01028
O         69.19754       45.00654       26.97628
C         66.58274       44.77559       27.74886
C         65.09664       44.82199       28.14890
C         64.51388       43.45164       28.38344
O         65.19649       42.44441       28.27576
O         63.21269       43.33446       28.70864
H         65.85699       47.72513       26.87236
H         67.15628       46.74263       28.43271
H         67.16496       44.28378       28.55981
H         66.67394       44.16268       26.83490
H         64.51031       45.29675       27.33344
H         64.97632       45.42518       29.07364
N         69.27694       47.20835       26.58618
C         70.63166       47.15515       26.08115
H         71.32183       46.81961       26.88318
H         70.68864       46.44758       25.22497
H         70.94492       48.15973       25.72796
H         68.78480       48.11403       26.58424
Ca        64.69773       40.73025       25.67786
O         67.14968       39.74381       27.70771
H         67.42092       40.08754       28.59574
H         67.74111       38.96523       27.55110
O         66.57156       42.61915       24.91861
H         65.70982       43.10312       24.85087
H         67.23588       43.22057       24.50161
O         63.99320       39.61895       28.35242
H         64.31101       39.29944       29.23362
H         63.26211       40.25225       28.56279
O         67.65570       39.93412       24.56033
H         68.00097       39.40644       23.79769
H         68.46687       40.25873       25.02613

Ca 1.0



