%chk=apoCaM-CA-Ng.loop3.water4.frame1034.chk
%nprocshared=20
%mem=10GB
%nosave
#b3lyp/svp scf=(tight,noincore,xqc) Test 
#IOP(5/87=12) Density=Current Pop=(MK,readradii) iop(6/33=2) iop(6/42=6)

apoCaM-CA-Ng.loop3.water4.frame1034 

   0  1 
C         38.45735       47.75769       44.25906
C         38.72480       48.22962       42.86135
O         38.09866       49.19008       42.43623
H         37.38986       47.46627       44.35011
H         39.08500       46.87891       44.51725
H         38.67643       48.57519       44.97659
N         39.63865       47.58863       42.08030
C         39.92222       47.96693       40.70466
C         39.46513       46.85602       39.77512
O         38.61833       47.12904       38.93626
C         41.39531       48.42810       40.54854
C         42.46172       47.48908       41.05200
O         42.68488       46.42988       40.49466
O         43.23171       47.85523       42.09458
H         40.14289       46.77792       42.47053
H         39.32628       48.86231       40.41719
H         41.49346       49.36313       41.14336
H         41.60275       48.69243       39.48824
N         39.94614       45.58265       39.86683
C         39.50668       44.49500       39.00130
C         40.61172       44.19579       38.00760
O         41.14279       43.09531       37.95518
C         39.09685       43.27418       39.84818
C         37.93599       43.59276       40.80442
C         37.57000       42.35877       41.63834
C         36.41803       42.65679       42.60687
N         36.09254       41.47550       43.40634
H         40.65497       45.35740       40.57364
H         38.62516       44.79466       38.39205
H         39.97432       42.92858       40.43804
H         38.78220       42.45275       39.16685
H         37.05102       43.92103       40.21549
H         38.23157       44.41584       41.49155
H         38.46009       42.03826       42.22320
H         37.27080       41.53009       40.95967
H         35.51880       42.97013       42.03111
H         36.70799       43.48902       43.28658
H         36.92236       41.18577       43.97366
H         35.30460       41.70495       44.05411
H         35.80021       40.68784       42.78325
N         40.97261       45.18734       37.15136
C         41.98694       45.09157       36.11013
C         42.99788       46.18778       36.35842
O         43.19546       47.05269       35.51570
C         41.30941       45.19768       34.71906
C         40.35319       46.35443       34.65707
O         39.13056       46.14669       35.17078
O         40.74572       47.49455       34.46748
H         40.48157       46.08994       37.24092
H         42.52068       44.11684       36.14735
H         40.70386       44.27626       34.57512
H         42.04873       45.23112       33.88986
N         43.67563       46.20997       37.53555
C         44.59776       47.27018       37.89190
C         46.00726       46.75230       37.98798
O         46.23392       45.57405       37.74840
H         43.52592       45.44738       38.21423
H         44.27228       47.70749       38.85387
H         44.59172       48.07989       37.13329
N         47.04799       47.57566       38.28724
C         46.90970       48.99273       38.61628
C         46.21006       49.13574       39.96609
O         46.64151       48.47978       40.90381
C         48.30996       49.64253       38.63112
C         48.25084       51.13533       38.84859
N         48.59776       51.99135       37.85828
O         47.88395       51.57752       39.92691
H         47.99515       47.16373       38.26717
H         46.35421       49.50460       37.80259
H         48.76685       49.44578       37.63544
H         48.96564       49.17767       39.39874
H         48.89847       51.64342       36.93593
H         48.54874       53.00995       38.00727
N         45.15271       49.97384       40.18800
C         44.63907       50.91666       39.20431
C         43.66696       51.89529       39.83011
O         43.97753       52.40487       40.89810
H         44.75993       49.99565       41.14287
H         44.20002       50.39481       38.32786
H         45.48884       51.53601       38.85348
N         42.50778       52.25728       39.19779
C         41.58389       53.27645       39.72618
C         40.33240       53.42325       38.84648
O         40.31652       52.95205       37.71726
C         42.33207       54.64163       39.84763
C         41.57741       55.79303       40.46743
C         41.44988       57.00385       39.76547
C         41.05302       55.69813       41.76847
C         40.81227       58.09957       40.35269
C         40.40531       56.79368       42.35024
C         40.28772       58.00030       41.64450
O         39.68253       59.07053       42.19808
H         42.29922       51.79564       38.30006
H         41.24933       52.92230       40.72594
H         42.69747       54.92390       38.83588
H         43.22668       54.53501       40.48566
H         41.86377       57.10998       38.77049
H         41.14895       54.78008       42.33389
H         40.73577       59.03082       39.80544
H         40.00441       56.70742       43.35229
H         39.31541       59.04960       43.09321
N         39.21623       54.03935       39.33451
C         37.97490       54.19009       38.57109
C         38.15343       55.04940       37.32849
O         38.58357       56.18952       37.42997
C         36.78536       54.74779       39.42203
C         36.24297       53.64859       40.36756
C         37.10981       56.05871       40.17731
C         34.92793       54.03485       41.04950
H         39.24187       54.36187       40.30884
H         37.65495       53.18258       38.22648
H         35.96120       54.96338       38.70318
H         37.00107       53.37321       41.13065
H         36.01996       52.74408       39.75822
H         37.85506       55.89740       40.98145
H         37.48805       56.84368       39.49619
H         36.19858       56.47426       40.65081
H         34.16523       54.30746       40.28743
H         34.54523       53.17053       41.63123
H         35.06734       54.88205       41.74952
N         37.77937       54.55269       36.11152
C         37.79256       55.33617       34.87693
C         37.53560       54.46874       33.64179
O         37.26941       53.28203       33.75601
C         36.74952       56.47473       34.95635
O         35.46519       55.93636       35.12162
H         37.45168       53.57816       36.07737
H         38.81013       55.76671       34.75036
H         36.77668       57.08974       34.03111
H         36.98303       57.14547       35.81074
H         34.85468       56.70818       35.25300
N         37.64734       55.02107       32.40291
C         37.55019       54.29228       31.14362
C         36.18755       53.65398       30.90686
O         36.12965       52.52248       30.44359
C         38.70414       53.28122       31.01818
H         37.86726       56.02626       32.33415
H         37.68211       55.04113       30.33152
H         39.67737       53.79944       31.14971
H         38.62367       52.48374       31.78698
H         38.69699       52.80131       30.01684
N         35.04018       54.35018       31.15369
C         33.70785       53.89757       30.76142
C         33.40140       52.47737       31.21481
O         33.15354       51.62042       30.37529
C         33.54724       54.05691       29.24214
H         35.11059       55.27558       31.60332
H         32.95379       54.57594       31.21903
H         33.72050       55.11627       28.95699
H         34.26622       53.41547       28.69078
H         32.51315       53.78385       28.93847
N         33.36999       52.16303       32.53779
C         33.02769       50.83147       33.02193
C         31.72190       50.88990       33.77855
O         30.78155       50.22388       33.36657
C         34.18439       50.25980       33.85221
C         33.83863       48.88013       34.42965
C         35.07233       48.22730       34.94669
O         35.84124       48.82574       35.87081
O         35.43362       47.16268       34.46949
H         33.56818       52.90392       33.22773
H         32.87864       50.12646       32.17193
H         34.46720       50.94350       34.68318
H         35.05889       50.16877       33.16796
H         33.41685       48.23011       33.63136
H         33.08795       48.97948       35.24244
N         31.58349       51.66912       34.88502
C         30.34209       51.77409       35.62411
H         29.53475       51.14529       35.19129
H         30.50906       51.45361       36.67250
H         30.00044       52.82958       35.61277
H         32.38649       52.22246       35.21815
Ca        37.79443       47.76431       35.92362
O         40.45213       50.09749       36.49693
H         41.36668       49.74672       36.35465
H         40.40656       50.90437       35.92471
O         37.77236       50.25518       38.38966
H         37.23657       49.69995       39.01018
H         38.35762       50.79351       38.97966
O         37.79110       50.90013       35.22183
H         36.97521       51.25085       35.65964
H         37.49583       50.64634       34.31145
O         36.15041       46.06109       37.91721
H         35.34998       46.56715       37.62954
H         36.06841       45.18323       37.46729

Ca 1.0



