%chk=apoCaM-CA-Ng.loop3.water3.frame877.chk
%nprocshared=20
%mem=10GB
%nosave
#b3lyp/svp scf=(tight,noincore,xqc) Test 
#IOP(5/87=12) Density=Current Pop=(MK,readradii) iop(6/33=2) iop(6/42=6)

apoCaM-CA-Ng.loop3.water3.frame877 

   0  1 
C         36.02331       13.08875       -8.82577
C         37.30012       13.79042       -9.19006
O         37.48768       14.14191      -10.34546
H         35.36726       12.96571       -9.71342
H         36.24227       12.09251       -8.39039
H         35.47725       13.69864       -8.07257
N         38.20937       14.07415       -8.21965
C         39.39264       14.89603       -8.44927
C         40.40002       14.21341       -9.36446
O         40.86693       13.13286       -9.03129
C         40.01155       15.28321       -7.09004
C         40.95191       16.44980       -7.16709
O         41.46033       16.95834       -6.03054
O         41.22867       16.97315       -8.23356
H         37.98900       13.77275       -7.25674
H         39.04838       15.83606       -8.91249
H         40.49760       14.40350       -6.61662
H         39.19875       15.61891       -6.41667
N         40.77216       14.79061      -10.54841
C         41.68866       14.14643      -11.49246
C         43.10941       14.01162      -10.92666
O         43.88795       13.23164      -11.45547
C         41.74126       14.94932      -12.81860
C         42.21951       14.11156      -14.01498
C         42.42557       14.99404      -15.25783
C         42.75664       14.18045      -16.52122
N         41.58929       13.45289      -17.02697
H         40.34580       15.69276      -10.80626
H         41.25367       13.14286      -11.69743
H         42.38099       15.84719      -12.67410
H         40.71971       15.30127      -13.08568
H         41.44667       13.33605      -14.19617
H         43.18173       13.60557      -13.79945
H         43.28186       15.67056      -15.04076
H         41.53297       15.62459      -15.46154
H         43.59489       13.47722      -16.31828
H         43.09021       14.88715      -17.31283
H         41.85780       12.93903      -17.89680
H         41.23820       12.75989      -16.33038
H         40.82736       14.12973      -17.26521
N         43.52855       14.79827       -9.89272
C         44.86933       14.78248       -9.31072
C         44.79098       14.38677       -7.84048
O         45.43895       13.42038       -7.46366
C         45.60509       16.12578       -9.57647
C         44.78234       17.38607       -9.44908
O         44.61556       18.09050      -10.43230
O         44.21880       17.75671       -8.29036
H         42.86642       15.47922       -9.50213
H         45.50964       14.00974       -9.79424
H         45.93988       16.09492      -10.63769
H         46.52100       16.18751       -8.95011
N         43.96620       15.03268       -6.97286
C         43.74160       14.62002       -5.59626
C         43.89574       15.74235       -4.59157
O         43.57989       15.50075       -3.43427
H         43.39567       15.79984       -7.32502
H         44.39582       13.77231       -5.30022
H         42.69013       14.27100       -5.52949
N         44.37339       16.97814       -4.92757
C         44.51943       18.06926       -3.96180
C         43.81326       19.32026       -4.49356
O         43.35149       19.28549       -5.62588
C         46.03912       18.26795       -3.74348
C         46.42969       18.81602       -2.38878
N         47.11080       18.03367       -1.51507
O         46.15432       19.96078       -2.07373
H         44.70188       17.14644       -5.88864
H         44.05829       17.76767       -2.99610
H         46.48875       18.85227       -4.57576
H         46.49655       17.25602       -3.79453
H         47.36592       17.06349       -1.75443
H         47.38274       18.39270       -0.58880
N         43.69243       20.46983       -3.76733
C         43.11661       21.68382       -4.33333
C         41.65424       21.53360       -4.67437
O         41.04810       20.52854       -4.32704
H         44.04238       20.51319       -2.80488
H         43.68567       21.94332       -5.25243
H         43.21680       22.52884       -3.61846
N         41.01831       22.51901       -5.37311
C         39.60694       22.43756       -5.74104
C         39.31639       21.21989       -6.61708
O         40.21669       20.45446       -6.92751
C         39.12055       23.75583       -6.40246
C         39.28377       24.95945       -5.49644
C         38.71318       24.97263       -4.20892
C         39.99123       26.09120       -5.93714
C         38.86458       26.08408       -3.37606
C         40.12891       27.20869       -5.10589
C         39.56967       27.20568       -3.81976
O         39.69907       28.27229       -3.00501
H         41.55874       23.35636       -5.64135
H         39.01887       22.29178       -4.81096
H         38.03740       23.68651       -6.62806
H         39.65233       23.91029       -7.36712
H         38.15393       24.12376       -3.83958
H         40.42736       26.11588       -6.92777
H         38.42927       26.07349       -2.38440
H         40.66952       28.07633       -5.46240
H         40.17486       29.07119       -3.27301
N         38.03304       20.95968       -6.98907
C         37.54140       19.73721       -7.61273
C         38.23234       19.40199       -8.92973
O         39.35910       18.92889       -8.91917
C         37.61285       18.53560       -6.61790
C         36.90892       17.26150       -7.16016
C         37.06036       18.90555       -5.22864
C         35.40193       17.37953       -7.39362
H         37.30577       21.64461       -6.73799
H         36.46678       19.92966       -7.81588
H         38.68459       18.27945       -6.46217
H         37.06830       16.43283       -6.43799
H         37.36770       16.97206       -8.12145
H         36.00050       19.22496       -5.28542
H         37.14829       18.03836       -4.54000
H         37.64696       19.73532       -4.78114
H         34.86876       17.61933       -6.45188
H         35.17159       18.14351       -8.16210
H         35.01921       16.40414       -7.76156
N         37.57852       19.56919      -10.10983
C         38.08985       19.05191      -11.37794
C         37.49578       19.77649      -12.56737
O         38.25396       20.15443      -13.45087
C         37.83108       17.54236      -11.47396
O         36.45860       17.27222      -11.39978
H         36.65358       20.01705      -10.07895
H         39.18962       19.20349      -11.43361
H         38.35265       17.04354      -10.63563
H         38.24430       17.15579      -12.43335
H         36.37110       16.28448      -11.41624
N         36.15940       20.04487      -12.64639
C         35.55732       20.76916      -13.76051
C         36.26988       22.09669      -14.01717
O         36.85598       22.63396      -13.08701
C         34.07762       21.02325      -13.46430
H         35.54381       19.73857      -11.87927
H         35.66144       20.11680      -14.65203
H         33.97579       21.66048      -12.55803
H         33.59483       21.53562      -14.31092
H         33.54806       20.06393      -13.28670
N         36.38029       22.65243      -15.26165
C         35.73528       22.15182      -16.47025
C         35.24406       23.32676      -17.31064
O         36.07985       24.13395      -17.69446
C         36.73294       21.32928      -17.29077
H         37.00012       23.47278      -15.35842
H         34.91722       21.46692      -16.20842
H         37.09174       20.46215      -16.69666
H         36.23619       20.93965      -18.20637
H         37.61018       21.94144      -17.58904
N         33.94308       23.52863      -17.67655
C         32.80981       22.69601      -17.29136
C         32.25354       23.10402      -15.93420
O         31.33364       22.44518      -15.46737
C         31.70805       22.77331      -18.36925
C         32.20690       22.22186      -19.71583
C         31.13047       22.27601      -20.75898
O         30.65853       23.34827      -21.10193
O         30.69136       21.14018      -21.33415
H         33.74415       24.35770      -18.26001
H         33.10860       21.62964      -17.25091
H         31.37082       23.82762      -18.48490
H         30.83622       22.16053      -18.04878
H         32.52549       21.16502      -19.57782
H         33.08009       22.80500      -20.07823
N         32.75279       24.16096      -15.22852
C         32.24185       24.51995      -13.92305
H         31.15878       24.75650      -13.98701
H         32.39715       23.68074      -13.21242
H         32.77985       25.41214      -13.53733
H         33.51646       24.73624      -15.61026
Ca        42.74712       19.46925       -8.35744
O         44.04881       22.08613       -8.31482
H         43.17880       22.20705       -7.85698
H         43.81165       21.96037       -9.26823
O         41.24844       21.20986      -10.33456
H         41.50010       21.23543      -11.29172
H         40.25901       21.22645      -10.33618
O         41.58464       18.24451      -11.11088
H         41.47000       18.33516      -12.08990
H         42.18895       17.47015      -11.00200

Ca 1.0



