%chk=apoCaM-CA-Ng.loop1.water2.frame1137.chk
%nprocshared=20
%mem=10GB
%nosave
#b3lyp/svp scf=(tight,noincore,xqc) Test 
#IOP(5/87=12) Density=Current Pop=(MK,readradii) iop(6/33=2) iop(6/42=6)

apoCaM-CA-Ng.loop1.water2.frame1137 

   0  1 
C         84.07707       40.92117       82.64551
C         85.40408       40.58340       82.03518
O         86.24563       41.46182       81.92094
H         83.26293       40.68109       81.92867
H         83.93547       40.33046       83.57353
H         84.02091       42.00307       82.89358
N         85.63987       39.32154       81.57725
C         86.87635       38.92203       80.91327
C         86.60259       38.81047       79.42878
O         86.71399       37.74572       78.83749
C         87.49600       37.65496       81.54957
C         86.65791       36.40614       81.43533
O         87.08310       35.44404       80.81525
O         85.45959       36.32094       82.04189
H         84.86927       38.64106       81.63463
H         87.64893       39.71658       81.01840
H         87.70644       37.84752       82.62315
H         88.47190       37.47324       81.04503
N         86.25456       39.94460       78.76490
C         85.93179       40.01127       77.34883
C         87.07783       40.63994       76.55904
O         87.54095       39.96008       75.65314
C         84.55711       40.67669       77.12785
C         83.44980       39.86833       77.83135
C         82.05529       40.44965       77.57665
C         80.98139       39.59787       78.27208
N         79.64311       40.13559       78.03161
H         86.22003       40.80868       79.31556
H         85.82646       38.97893       76.94145
H         84.34563       40.69559       76.03610
H         84.54545       41.72090       77.49912
H         83.63842       39.85286       78.92758
H         83.47210       38.82205       77.45330
H         81.85664       40.46382       76.48261
H         82.01108       41.49075       77.96413
H         81.17508       39.57470       79.36795
H         81.02825       38.55409       77.88756
H         79.57221       41.10690       78.41253
H         79.43631       40.14066       77.00637
H         78.93996       39.53048       78.51455
N         87.68351       41.84203       76.81268
C         87.37539       42.80671       77.86524
C         88.35879       42.64455       79.02474
O         89.26427       41.82780       78.93204
C         87.26359       44.23013       77.25691
C         88.35775       44.61878       76.28117
O         89.63185       44.82340       76.65774
O         88.07294       44.77132       75.10375
H         88.51699       42.05016       76.23998
H         86.38928       42.60902       78.30858
H         87.15442       44.99570       78.05053
H         86.31727       44.23420       76.67118
N         88.16813       43.31099       80.20346
C         88.96523       43.05522       81.40188
C         90.43621       43.43683       81.21255
O         90.53036       44.80362       80.98663
H         87.37927       43.97033       80.28199
H         88.89149       41.97635       81.65807
H         88.55279       43.63836       82.25464
N         91.26688       43.08488       82.37047
C         92.69816       43.33599       82.09096
C         93.47370       43.25259       83.39779
O         93.32190       42.25232       84.08576
C         93.25379       42.33191       81.05432
C         94.57903       42.78828       80.50770
O         94.65288       43.84003       79.88950
O         95.68094       42.03324       80.66602
H         91.13064       42.07264       82.60492
H         92.80478       44.34312       81.64749
H         92.56849       42.26500       80.18697
H         93.33319       41.31919       81.50586
N         94.34044       44.21273       83.83782
C         94.75975       45.39070       83.09528
C         93.68736       46.43243       82.88432
O         92.55421       46.26331       83.31335
H         94.81510       44.04745       84.73993
H         95.17889       45.07727       82.11849
H         95.57830       45.88574       83.66248
N         94.02311       47.58148       82.23111
C         93.09104       48.68264       82.00043
C         91.97841       48.30373       81.03214
O         91.99887       47.21370       80.47982
C         93.84488       49.94872       81.49665
C         94.46788       49.78269       80.10304
O         94.85804       50.29325       82.40612
H         95.00625       47.68791       81.93890
H         92.63210       48.94495       82.97964
H         93.13230       50.80065       81.41410
H         94.41244       50.70806       83.19062
H         94.96883       50.72887       79.80782
H         95.22579       48.97404       80.08779
H         93.68723       49.56045       79.34517
N         90.96988       49.19215       80.78779
C         89.84413       48.98753       79.88067
C         90.29341       48.89138       78.42735
O         91.05399       48.00061       78.07766
C         88.96777       47.76141       80.27420
C         88.56455       47.74305       81.76976
C         87.72272       47.65500       79.36923
C         87.75668       48.95523       82.23566
H         90.98125       50.08695       81.29941
H         89.18870       49.88063       79.97143
H         89.55351       46.84708       80.10879
H         89.48053       47.67478       82.39447
H         87.96886       46.82351       81.96480
H         88.01532       47.52808       78.30521
H         87.11476       46.77126       79.65464
H         87.09032       48.56337       79.44339
H         87.50793       48.83312       83.31048
H         88.34695       49.88751       82.12523
H         86.80706       49.04684       81.67115
N         89.75032       49.73156       77.50188
C         89.94252       49.54847       76.06649
C         91.31626       49.94776       75.55649
O         91.58279       49.66388       74.39533
C         88.85884       50.32701       75.26550
C         88.99086       51.85436       75.39469
O         87.57746       49.94798       75.69746
H         89.05636       50.41925       77.82765
H         89.78861       48.46664       75.84958
H         88.96095       50.09415       74.17932
H         87.40811       49.03955       75.33504
H         89.97250       52.20160       75.00846
H         88.19731       52.34975       74.79676
H         88.88833       52.18895       76.44707
N         92.18922       50.70313       76.28808
C         93.38626       51.26607       75.66716
C         94.37575       50.16032       75.33673
O         94.96840       49.60660       76.25029
C         94.01528       52.37403       76.55468
C         95.14918       53.11827       75.83722
O         93.03728       53.30220       76.95886
H         91.93511       50.98554       77.24658
H         93.05064       51.76761       74.73028
H         94.42434       51.90480       77.47560
H         92.59553       53.65757       76.14352
H         95.56846       53.89965       76.50564
H         95.96507       52.42329       75.55674
H         94.76373       53.61235       74.91851
N         94.55477       49.76830       74.03925
C         95.40988       48.67544       73.57372
C         95.01238       47.34186       74.18978
O         95.06395       47.19931       75.40207
C         96.91244       48.94601       73.78009
C         97.34365       50.29862       73.18654
C         98.86778       50.43378       73.01337
C         99.71800       50.14671       74.26244
N         99.41081       51.04471       75.37366
H         94.01288       50.25820       73.31088
H         95.27138       48.60289       72.47078
H         97.45714       48.12892       73.25565
H         97.18592       48.91254       74.85592
H         96.94663       51.11405       73.82568
H         96.90452       50.42255       72.17220
H         99.08674       51.45894       72.64166
H         99.18986       49.71703       72.22654
H        100.78806       50.26897       73.98129
H         99.57941       49.09119       74.58270
H         98.43059       50.89691       75.70324
H        100.06104       50.83009       76.16424
H         99.54700       52.03931       75.08244
N         94.64299       46.29005       73.40653
C         94.24592       45.00925       73.98186
C         92.92620       45.16449       74.73579
O         92.94711       44.97577       75.94381
C         94.23803       43.88994       72.92028
C         95.66317       43.61133       72.41094
C         95.66718       42.54651       71.35472
O         95.07043       42.72102       70.30407
O         96.34794       41.40167       71.55205
H         94.67022       46.39715       72.38119
H         95.01894       44.69868       74.72385
H         93.60638       44.16546       72.05873
H         93.84418       42.95470       73.37682
H         96.29623       43.28276       73.26487
H         96.11120       44.53139       71.97971
N         91.74432       45.54539       74.16565
C         91.52048       45.77419       72.75673
H         90.48073       46.13302       72.60123
H         92.21575       46.54098       72.36292
H         91.60165       44.82338       72.19790
H         90.93433       45.68949       74.78359
Ca        90.32674       44.88682       78.75850
O         91.84407       42.32293       77.54927
H         91.69843       41.50354       78.08534
H         92.68202       42.14444       77.05444
O         93.97481       46.69593       78.26476
H         93.64933       47.40934       77.66049
H         94.87499       46.99913       78.54266

Ca 1.0



