%chk=apoCaM-CA-Ng.loop4.water6.frame558.chk
%nprocshared=20
%mem=10GB
%nosave
#b3lyp/svp scf=(tight,noincore,xqc) Test 
#IOP(5/87=12) Density=Current Pop=(MK,readradii) iop(6/33=2) iop(6/42=6)

apoCaM-CA-Ng.loop4.water6.frame558 

   -3  1 
C         47.15417       17.26258      -26.59870
C         46.00254       16.76933      -27.42143
O         45.37809       15.78612      -27.05854
H         48.07987       17.24550      -27.21313
H         46.95579       18.30587      -26.27384
H         47.30615       16.62606      -25.70251
N         45.67931       17.42402      -28.56895
C         44.62024       17.06117      -29.50967
C         43.20330       17.30061      -28.98647
O         42.28379       17.18314      -29.78602
C         44.77174       15.62308      -30.05662
C         46.20362       15.23247      -30.29709
O         46.66854       14.26999      -29.70709
O         47.00234       15.95125      -31.10397
H         46.26421       18.23305      -28.83234
H         44.74791       17.75005      -30.37594
H         44.17745       15.51800      -30.99033
H         44.35444       14.90981      -29.32857
N         42.92983       17.66026      -27.69141
C         41.57579       17.99545      -27.24737
C         41.07083       19.20369      -28.02549
O         41.89328       20.03608      -28.38438
C         41.44855       18.27320      -25.70753
C         42.13262       19.55941      -25.15769
C         41.82196       17.04580      -24.86727
C         43.66212       19.58631      -25.13279
H         43.69041       17.70281      -27.01244
H         40.94485       17.11184      -27.46679
H         40.36656       18.44002      -25.51821
H         41.79639       19.68296      -24.10435
H         41.76818       20.44854      -25.71359
H         41.17629       16.20008      -25.15251
H         42.88226       16.75298      -25.00368
H         41.63794       17.24398      -23.78970
H         43.99552       20.51842      -24.63054
H         44.06559       18.72901      -24.55403
H         44.09024       19.60567      -26.15172
N         39.75682       19.43486      -28.30966
C         38.63227       18.55537      -27.99493
C         38.71579       17.26855      -28.79298
O         38.61537       16.19406      -28.21650
C         37.29669       19.25427      -28.34554
C         37.05677       20.52407      -27.56582
O         36.03700       21.16441      -27.76380
O         37.94524       20.96665      -26.65323
H         39.54588       20.31917      -28.80009
H         38.59788       18.33261      -26.90742
H         36.45553       18.55972      -28.12676
H         37.27447       19.49881      -29.43019
N         38.90154       17.31682      -30.14163
C         38.91881       16.14714      -30.99899
C         37.52916       15.57764      -31.13347
O         36.62794       16.31593      -31.50746
H         39.04812       18.23349      -30.59019
H         39.66048       15.40356      -30.63075
H         39.23307       16.46192      -32.01670
N         37.27940       14.26301      -30.88148
C         35.95033       13.67056      -31.03146
C         34.93439       14.14521      -29.98664
O         33.80769       13.66974      -30.03771
C         36.02600       12.11973      -31.07846
C         36.63679       11.41916      -29.89062
O         36.66303       10.19910      -29.87196
O         37.19650       12.09962      -28.87482
H         38.07805       13.65714      -30.64064
H         35.54956       13.95909      -32.02944
H         36.61815       11.82410      -31.97146
H         34.99529       11.72701      -31.22562
N         35.22051       15.07836      -29.02743
C         34.24668       15.48026      -28.02058
C         34.02946       14.41230      -26.96262
O         33.20671       14.61823      -26.08214
H         36.14001       15.53395      -28.99455
H         33.29301       15.76053      -28.51789
H         34.62573       16.37857      -27.48510
N         34.79271       13.28259      -26.94102
C         34.78143       12.26586      -25.90238
C         35.16866       12.88178      -24.57122
O         34.53144       12.66199      -23.55279
C         33.49436       11.42207      -25.93921
C         33.42773       10.66108      -27.28275
C         32.24836        9.73530      -27.41806
N         32.12678        8.97376      -28.53073
O         31.40761        9.65661      -26.53454
H         35.50604       13.15467      -27.65998
H         35.61773       11.56198      -26.12089
H         32.59735       12.06200      -25.79870
H         33.53262       10.67284      -25.11866
H         34.34602       10.04023      -27.38162
H         33.40212       11.38308      -28.12754
H         32.83424        9.02251      -29.27976
H         31.33219        8.32734      -28.64265
N         36.28229       13.66463      -24.55768
C         36.92433       14.24421      -23.38549
C         38.37016       13.75383      -23.32292
O         38.80165       13.32602      -22.25989
C         36.83773       15.80319      -23.38841
C         37.42670       16.48685      -24.63615
C         35.38298       16.25807      -23.19791
H         36.71576       13.84882      -25.46980
H         36.41777       13.91381      -22.45032
H         37.40436       16.17129      -22.50337
H         38.50557       16.26692      -24.74724
H         36.88445       16.18221      -25.55617
H         37.33909       17.59024      -24.53798
H         34.96895       15.83576      -22.25695
H         35.33489       17.36570      -23.11717
H         34.74782       15.93387      -24.04819
N         39.16482       13.76115      -24.43506
C         40.57127       13.35888      -24.47025
C         40.75395       11.89883      -24.02815
O         39.77005       11.20918      -23.81522
C         41.07986       13.53697      -25.93371
C         42.56742       13.66955      -26.12827
N         43.06953       13.65905      -27.37913
O         43.32393       13.82642      -25.18320
H         38.76083       14.09996      -25.31717
H         41.11320       14.04180      -23.78164
H         40.66248       14.45829      -26.39136
H         40.68653       12.68893      -26.53817
H         42.45005       13.56166      -28.19740
H         44.08502       13.72244      -27.52203
N         42.00469       11.36116      -23.89732
C         42.26782        9.96962      -23.54472
C         43.14886        9.92403      -22.29990
O         43.55667       10.96993      -21.82017
C         43.02826        9.29737      -24.71270
C         42.43348        9.60033      -26.07135
C         43.20010       10.31929      -27.00756
C         41.13285        9.20026      -26.41853
C         42.67718       10.63997      -28.25953
C         40.60909        9.52604      -27.67771
C         41.37701       10.24978      -28.59875
O         40.85792       10.56797      -29.80191
H         42.82635       11.93947      -24.06676
H         41.31492        9.42897      -23.36188
H         43.09641        8.19960      -24.55146
H         44.06344        9.69884      -24.71138
H         44.20512       10.64478      -26.76731
H         40.52415        8.64572      -25.71626
H         43.28360       11.20045      -28.96058
H         39.60368        9.22081      -27.93790
H         41.35685       11.07864      -30.45651
N         43.50517        8.73238      -21.73604
C         44.45821        8.63633      -20.63281
C         45.45169        7.51007      -20.93289
O         45.41400        6.49736      -20.24784
C         43.68347        8.41258      -19.31309
C         44.60934        8.51984      -18.08422
C         43.85103        8.31249      -16.80697
O         43.29516        7.24805      -16.58780
O         43.80066        9.29275      -15.88482
H         43.08436        7.86464      -22.09822
H         45.00877        9.59162      -20.49838
H         43.16241        7.43027      -19.33817
H         42.91143        9.20864      -19.21722
H         45.07535        9.53014      -18.07054
H         45.42359        7.76851      -18.12642
N         46.35163        7.54843      -21.95886
C         46.60429        8.68820      -22.83059
C         47.35463        9.75637      -22.06258
O         48.41099        9.46380      -21.51689
C         47.46406        8.28631      -24.05734
C         46.73782        7.38605      -25.07600
C         46.42548        6.01252      -24.55870
O         45.26926        5.62574      -24.50050
O         47.42305        5.19208      -24.17576
H         46.92509        6.70316      -22.09867
H         45.65547        9.08692      -23.23182
H         48.42140        7.81868      -23.73656
H         47.71503        9.22046      -24.60862
H         47.39025        7.26474      -25.96718
H         45.80444        7.89306      -25.40538
N         46.89039       11.03325      -22.01102
C         47.61113       12.08126      -21.32185
H         48.62430       12.19710      -21.76442
H         47.06939       13.04512      -21.42391
H         47.70504       11.83317      -20.24356
H         46.01461       11.27821      -22.49451
Ca        49.18503       15.35255      -31.08066
O         49.11179       13.82754      -28.07935
H         48.55009       13.54369      -27.31487
H         50.03924       13.63569      -27.79175
O         47.82619       13.49528      -33.18955
H         47.05923       12.96354      -32.85909
H         47.44780       14.39279      -33.36762
O         52.10446       14.08505      -29.78627
H         52.43112       14.39505      -28.90445
H         52.26807       13.10859      -29.78104
O         51.13876       13.93436      -33.01021
H         51.07827       14.85844      -33.36053
H         50.81840       13.36542      -33.75438
O         49.20554       17.06502      -33.50547
H         48.50712       17.76586      -33.53080
H         49.83430       17.36810      -32.80282
O         49.79764       11.88234      -30.89808
H         50.34794       11.39588      -30.23398
H         48.88052       11.53491      -30.76245

Ca 1.0



