%chk=apoCaM-CA-Ng.loop4.water4.frame248.chk
%nprocshared=20
%mem=10GB
%nosave
#b3lyp/svp scf=(tight,noincore,xqc) Test 
#IOP(5/87=12) Density=Current Pop=(MK,readradii) iop(6/33=2) iop(6/42=6)

apoCaM-CA-Ng.loop4.water4.frame248 

   -3  1 
C         20.52912       24.77172       93.47687
C         19.70827       26.02470       93.52818
O         19.91007       26.82341       94.42786
H         21.27772       24.75736       94.29919
H         19.86159       23.89241       93.59093
H         21.06377       24.70716       92.50688
N         18.76639       26.26941       92.57221
C         17.88852       27.43506       92.56111
C         18.64542       28.74784       92.71181
O         18.54445       29.38943       93.74190
C         16.63871       27.23411       93.45525
C         16.88241       26.92494       94.90254
O         17.45970       27.82839       95.70768
O         16.50068       25.86345       95.36993
H         18.66473       25.59067       91.80270
H         17.41668       27.49950       91.55479
H         16.06782       26.38123       93.02358
H         15.98566       28.13008       93.38234
N         19.39590       29.19831       91.66166
C         20.09209       30.48407       91.51773
C         19.09855       31.64716       91.39293
O         19.00878       32.21411       90.31257
C         21.22255       30.72483       92.56188
C         22.09319       31.96799       92.19803
C         22.11842       29.48245       92.71668
C         22.86305       31.87641       90.86992
H         19.45311       28.57424       90.84155
H         20.59589       30.40770       90.53180
H         20.76012       30.91604       93.55501
H         22.83375       32.13714       93.01088
H         21.45398       32.86822       92.13828
H         22.57802       29.18871       91.75093
H         22.92569       29.68071       93.45115
H         21.53026       28.62144       93.09269
H         23.43314       32.81276       90.70886
H         23.58529       31.03489       90.87636
H         22.18417       31.77565       90.00109
N         18.28518       32.02750       92.42059
C         17.21097       33.00304       92.27475
C         17.70616       34.43238       92.13988
O         17.26561       35.09158       91.20897
C         16.19028       32.91689       93.44065
C         15.48015       31.59015       93.53197
O         14.55113       31.40623       94.48892
O         15.71793       30.68550       92.74729
H         18.36789       31.56440       93.32743
H         16.61507       32.74896       91.36730
H         15.40815       33.69223       93.28494
H         16.66460       33.11360       94.41598
N         18.54075       35.04478       93.02946
C         19.29874       34.36639       94.07247
C         20.03865       35.36314       94.93970
O         20.62607       36.27465       94.37285
H         18.69878       36.05585       92.89264
H         20.04869       33.72908       93.57480
H         18.68744       33.69220       94.66432
N         20.16791       35.26703       96.30061
C         19.68919       34.21199       97.18506
C         20.26393       32.84938       96.78883
O         19.49374       31.97776       96.41246
C         18.14375       34.26838       97.33467
C         17.60300       33.36485       98.41594
O         16.40268       33.34778       98.63561
O         18.41722       32.58675       99.15586
H         20.72665       35.99661       96.75696
H         20.06496       34.43278       98.20932
H         17.61651       34.02207       96.40103
H         17.86268       35.30807       97.60788
N         21.59420       32.53259       96.88986
C         22.65892       33.39793       97.37376
C         23.06841       34.41359       96.34581
O         22.56170       34.37568       95.23581
H         21.87234       31.57616       96.65658
H         23.56358       32.78470       97.58125
H         22.35007       33.87501       98.32693
N         24.02184       35.34415       96.63300
C         24.35524       36.42090       95.71133
C         25.73321       36.18112       95.12349
O         26.60136       37.04130       95.18655
C         24.20636       37.81178       96.38618
C         22.78148       38.14775       96.88894
C         22.35593       37.49559       98.19014
N         21.11029       37.71477       98.67376
O         23.12490       36.79288       98.82621
H         24.52172       35.28997       97.53317
H         23.66304       36.41245       94.84015
H         24.44395       38.56005       95.59819
H         24.93761       37.94623       97.21231
H         22.05482       37.91225       96.08252
H         22.73185       39.24177       97.07507
H         20.44192       38.30714       98.15956
H         20.80742       37.28129       99.55912
N         25.96911       35.00078       94.48346
C         27.20314       34.66438       93.77287
C         28.44548       34.55143       94.65754
O         29.49347       34.25813       94.09724
C         27.03708       33.33951       92.95791
C         25.93730       33.46489       91.89438
C         26.78482       32.10874       93.84998
H         25.18771       34.33269       94.44996
H         27.40196       35.47098       93.03153
H         27.98317       33.15830       92.40016
H         24.94069       33.62200       92.35259
H         26.15392       34.31732       91.21600
H         25.89824       32.53997       91.28024
H         26.73551       31.19210       93.22448
H         27.61342       31.97589       94.57656
H         25.83228       32.19124       94.41168
N         28.44401       34.77871       96.00656
C         29.65650       34.65367       96.81559
C         29.47532       33.78177       98.05281
O         30.48755       33.47311       98.66799
C         30.12602       36.05249       97.26717
C         30.41502       36.96632       96.10163
N         31.38858       36.66809       95.20937
O         29.76849       37.99466       95.96881
H         27.58758       35.10399       96.46619
H         30.46916       34.18818       96.21741
H         31.05232       35.96809       97.87656
H         29.33477       36.50679       97.90471
H         31.95337       35.81231       95.30814
H         31.58353       37.29925       94.41796
N         28.24749       33.44220       98.55257
C         28.08116       32.81351       99.85816
C         27.07460       31.67680       99.82139
O         25.96267       31.87740       99.35269
C         27.58583       33.87294      100.86816
C         28.55867       35.01986      101.04334
C         29.86712       34.78844      101.50722
C         28.15990       36.33724      100.75999
C         30.75839       35.85245      101.67523
C         29.05183       37.40041      100.93415
C         30.35236       37.16336      101.39035
O         31.19913       38.20003      101.55406
H         27.39051       33.76234       98.08411
H         29.04649       32.42764      100.24906
H         27.45112       33.39652      101.86252
H         26.59464       34.25661      100.53864
H         30.20145       33.78588      101.74046
H         27.15735       36.54491      100.40810
H         31.76273       35.65691      102.03021
H         28.73030       38.41094      100.71601
H         32.10560       38.07967      101.87166
N         27.37081       30.48881      100.42939
C         26.40812       29.41750      100.69379
C         25.95345       28.64321       99.46362
O         25.14739       27.73838       99.63466
C         25.20667       29.93349      101.52792
C         25.66467       30.58998      102.84168
C         24.49400       31.04394      103.66405
O         24.35282       32.34667      103.97557
O         23.67423       30.23466      104.06817
H         28.30904       30.37311      100.84206
H         26.92007       28.65904      101.32832
H         24.55098       29.07096      101.77933
H         24.59707       30.65471      100.94494
H         26.30353       31.46845      102.61782
H         26.26181       29.86710      103.43823
N         26.47344       28.85992       98.22074
C         26.13777       28.02842       97.06494
C         27.33183       27.19705       96.61805
O         27.17910       26.43608       95.67132
C         25.63151       28.91407       95.90579
C         24.31603       29.63918       96.23413
C         23.11266       28.73114       96.34534
O         21.92529       29.27984       96.65075
O         23.18653       27.52938       96.14154
H         27.17978       29.59748       98.08567
H         25.35284       27.28717       97.32166
H         25.47216       28.31061       94.98460
H         26.41561       29.66965       95.68124
H         24.10412       30.36654       95.42228
H         24.43596       30.21378       97.17682
N         28.53762       27.24501       97.25554
C         29.64853       26.41396       96.84685
H         30.52680       26.60861       97.49827
H         29.37101       25.34185       96.93872
H         29.92510       26.63801       95.79517
H         28.68737       27.86815       98.06100
Ca        19.97245       28.19111       96.85482
O         17.12842       30.35552       96.89501
H         16.84155       30.91432       96.13015
H         16.51491       30.60225       97.63101
O         17.54773       27.83992       98.93445
H         17.71658       26.87653       99.08815
H         16.66980       27.86860       98.47758
O         20.83922       25.96737       98.53846
H         20.54653       25.24512       97.92784
H         21.57002       26.42205       98.04921
O         20.01818       29.71434       99.48644
H         19.72990       30.28132       98.72792
H         20.86080       30.12907       99.79886

Ca 1.0



