%chk=apoCaM-CA-Ng.loop2.water3.frame562.chk
%nprocshared=20
%mem=10GB
%nosave
#b3lyp/svp scf=(tight,noincore,xqc) Test 
#IOP(5/87=12) Density=Current Pop=(MK,readradii) iop(6/33=2) iop(6/42=6)

apoCaM-CA-Ng.loop2.water3.frame562 

   -2  1 
C         57.95821       35.56907       87.94638
C         56.74293       36.26597       87.40767
O         56.36755       37.29815       87.94524
H         58.82903       36.25542       87.90506
H         57.77831       35.27007       89.00068
H         58.19774       34.65750       87.35898
N         56.05616       35.74354       86.35406
C         54.85497       36.36541       85.81426
C         55.18749       37.69952       85.16334
O         55.94639       37.72437       84.20500
C         54.18382       35.41950       84.79444
C         52.89101       35.97943       84.26672
O         52.74807       36.17225       83.06993
O         51.87933       36.25778       85.11144
H         56.37958       34.85031       85.95021
H         54.13253       36.50721       86.64955
H         53.95727       34.45204       85.29379
H         54.88129       35.21668       83.95145
N         54.60645       38.84767       85.61163
C         54.78214       40.13895       84.95259
C         56.20642       40.66657       85.05757
O         56.89368       40.30787       86.00303
C         53.84317       41.17122       85.59000
H         53.95733       38.78361       86.41058
H         54.48578       40.00614       83.89608
H         53.92046       42.16350       85.10688
H         52.79224       40.82836       85.49913
H         54.09327       41.29933       86.66498
N         56.70732       41.60494       84.19460
C         56.01261       42.06660       82.98916
C         55.85692       40.93046       81.97740
O         56.62853       39.98072       81.99750
C         56.70952       43.28543       82.33434
C         58.10111       42.97966       81.88082
O         58.73257       43.78647       81.21707
O         58.62894       41.78293       82.16609
H         57.63733       41.99697       84.41135
H         55.00825       42.42918       83.26951
H         56.73766       44.14460       83.03779
H         56.11552       43.58546       81.44259
N         54.79878       40.93367       81.12531
C         54.48841       39.85350       80.20250
C         53.24523       39.12726       80.68013
O         52.89770       39.27824       81.84341
H         54.13143       41.71803       81.17216
H         55.30426       39.10931       80.13406
H         54.35032       40.30834       79.20072
N         52.47897       38.33268       79.87825
C         52.66248       38.17452       78.43873
C         53.81878       37.24428       78.05703
O         54.05436       37.07944       76.86772
C         51.34473       37.66663       77.79295
C         50.15019       38.54474       78.11718
N         48.94954       37.99508       78.42199
O         50.25991       39.76153       78.07736
H         51.63395       37.92367       80.30856
H         52.84368       39.17716       77.99529
H         51.12996       36.61955       78.10275
H         51.47277       37.67715       76.69050
H         48.81566       36.97343       78.41424
H         48.13583       38.59469       78.62852
N         54.55808       36.57330       78.98805
C         55.59142       35.60038       78.64771
C         56.81199       36.16540       77.93785
O         57.45213       35.42582       77.20435
H         54.34789       36.69664       79.98820
H         55.14532       34.77970       78.04352
H         55.96179       35.13450       79.58607
N         57.23010       37.44283       78.14702
C         58.46802       37.99733       77.59057
C         59.68427       37.45224       78.32089
O         59.64088       37.36701       79.53962
C         58.47990       39.54151       77.70167
C         57.44969       40.16775       76.75507
O         58.22916       39.93884       79.02459
H         56.65151       38.04251       78.74703
H         58.54930       37.76342       76.50596
H         59.48795       39.90158       77.38773
H         58.34738       40.92384       79.05391
H         56.41965       39.84789       77.01522
H         57.51149       41.27497       76.81495
H         57.67283       39.87031       75.70773
N         60.84478       37.17293       77.64654
C         62.07267       36.74590       78.31912
C         63.14829       37.82272       78.17731
O         63.55924       38.11804       77.06382
C         62.60211       35.39497       77.76351
C         63.85711       34.94827       78.57065
C         61.50678       34.31307       77.81572
C         64.63421       33.81188       77.91183
H         60.87250       37.31041       76.62500
H         61.86078       36.58907       79.38758
H         62.88803       35.55406       76.69988
H         63.56224       34.66335       79.60488
H         64.58268       35.78429       78.65122
H         60.62475       34.62106       77.21598
H         61.86689       33.35633       77.38796
H         61.17935       34.13787       78.86331
H         65.52806       33.57817       78.52903
H         64.02686       32.89176       77.81786
H         64.98107       34.13414       76.90623
N         63.65581       38.43329       79.28932
C         64.68033       39.46850       79.29390
C         65.88048       39.09770       80.17622
O         66.89649       39.76930       80.06400
C         64.08560       40.76110       79.88681
C         62.71272       41.07370       79.38618
O         62.43019       42.18247       78.96494
O         61.74360       40.17445       79.59885
H         63.23390       38.21706       80.18587
H         65.01764       39.65279       78.25111
H         64.77161       41.62226       79.74259
H         63.95498       40.60807       80.98186
N         65.79707       38.15348       81.17089
C         66.87433       37.87802       82.11770
C         66.33896       37.13878       83.35996
O         66.66860       35.97642       83.55132
C         68.03774       37.13631       81.41393
C         69.20531       36.88569       82.34916
C         69.82132       37.95228       83.03258
C         69.68979       35.58007       82.54902
C         70.88509       37.71441       83.90643
C         70.76404       35.34929       83.41556
C         71.35775       36.41482       84.09676
H         64.91781       37.65513       81.32475
H         67.28374       38.83899       82.47941
H         68.40755       37.75530       80.57047
H         67.66224       36.17885       80.98903
H         69.47752       38.96928       82.90192
H         69.24125       34.74052       82.03276
H         71.34300       38.54002       84.43597
H         71.13603       34.34341       83.56126
H         72.18489       36.23472       84.77125
N         65.55355       37.77369       84.29435
C         65.11441       37.17652       85.55842
C         64.30714       35.89354       85.43795
O         64.27453       35.12590       86.38928
C         64.23195       38.26757       86.17985
C         64.90927       39.52593       85.69569
C         65.20140       39.18036       84.23872
H         66.02815       36.99155       86.16637
H         63.22455       38.25424       85.70102
H         64.10405       38.18679       87.28069
H         64.33950       40.46809       85.84127
H         65.87934       39.60855       86.23975
H         64.31485       39.29577       83.58278
H         66.02319       39.84723       83.90880
N         63.57424       35.63408       84.32269
C         62.77659       34.42029       84.14644
C         63.71867       33.24425       84.07996
O         63.58256       32.31090       84.85742
C         61.87911       34.38293       82.86922
C         60.95498       35.60423       82.68772
C         61.66970       36.76015       82.06474
O         61.06813       37.95559       81.93347
O         62.77811       36.59298       81.59392
H         63.61103       36.34639       83.60379
H         62.07451       34.33571       85.00678
H         61.22682       33.48926       82.98380
H         62.46032       34.21585       81.93481
H         60.50765       35.88486       83.66343
H         60.13892       35.35234       81.97766
N         64.73240       33.26100       83.16652
C         65.71009       32.20714       83.02011
H         66.71696       32.61291       83.25509
H         65.50473       31.34719       83.68947
H         65.70510       31.85209       81.96845
H         64.83809       34.08293       82.55114
Ca        60.15157       40.91985       80.87775
O         62.04940       41.13586       83.18061
H         62.83988       41.67304       82.92533
H         62.27964       40.20982       82.91737
O         59.68553       39.73093       84.38827
H         60.57311       39.54238       84.78348
H         59.04849       39.29390       85.00559
O         58.25880       37.53747       82.20502
H         58.32145       37.41697       83.18541
H         58.04717       36.63568       81.85640

Ca 1.0



