%chk=apoCaM-CA-Ng.loop1.water2.frame1144.chk
%nprocshared=20
%mem=10GB
%nosave
#b3lyp/svp scf=(tight,noincore,xqc) Test 
#IOP(5/87=12) Density=Current Pop=(MK,readradii) iop(6/33=2) iop(6/42=6)

apoCaM-CA-Ng.loop1.water2.frame1144 

   0  1 
C         79.36602       52.31884       95.48639
C         80.83777       52.31449       95.19248
O         81.48648       53.31711       95.44915
H         78.87639       53.12660       94.90140
H         78.89275       51.35287       95.21190
H         79.20095       52.50282       96.56802
N         81.42732       51.22580       94.62043
C         82.83630       51.17478       94.24133
C         82.92141       51.17327       92.72803
O         83.43227       50.24659       92.11563
C         83.56518       50.00178       94.93792
C         83.07258       48.60968       94.62373
O         83.67654       47.55829       95.20856
O         82.15050       48.41147       93.84897
H         80.83225       50.41676       94.39164
H         83.36483       52.09595       94.57400
H         83.48623       50.15354       96.03619
H         84.64204       50.05189       94.66549
N         82.42238       52.25359       92.07265
C         82.36358       52.40544       90.62626
C         83.41015       53.39511       90.11778
O         84.16878       52.97785       89.25205
C         80.92632       52.74045       90.17546
C         79.97854       51.56597       90.47704
C         78.55268       51.83567       89.98411
C         77.67272       50.59061       90.17433
N         76.31197       50.82697       89.69442
H         82.04092       53.00231       92.65951
H         82.61785       51.43839       90.13403
H         80.92979       52.90567       89.07558
H         80.55331       53.66515       90.66104
H         79.95397       51.36018       91.57006
H         80.36852       50.66417       89.95513
H         78.57842       52.08870       88.90178
H         78.12258       52.69531       90.54358
H         77.64075       50.30973       91.25054
H         78.11398       49.74157       89.60472
H         75.75311       49.95030       89.80783
H         75.86310       51.59039       90.25027
H         76.32681       51.08736       88.68140
N         83.61980       54.66765       90.57260
C         82.93051       55.34368       91.66592
C         83.75039       55.20673       92.95381
O         84.79389       54.57052       92.94328
C         82.60351       56.80032       91.27651
C         83.81301       57.58357       90.86616
O         84.86745       57.68231       91.69290
O         83.85137       58.11308       89.76744
H         84.43841       55.15656       90.17677
H         81.94929       54.89047       91.85923
H         82.11012       57.31221       92.12548
H         81.87840       56.79581       90.43247
N         83.27887       55.71869       94.12642
C         83.88171       55.47667       95.43176
C         85.28536       56.01133       95.64116
O         85.88746       56.55620       94.73177
H         82.38778       56.23319       94.11591
H         83.90179       54.38244       95.62339
H         83.22902       55.94336       96.20100
N         85.83623       55.87923       96.88444
C         87.18554       56.26850       97.32260
C         87.25805       56.15924       98.85181
O         86.84252       55.13678       99.38250
C         88.28983       55.34352       96.75000
C         88.80210       55.69234       95.37841
O         88.43742       56.82804       94.75737
O         89.65977       54.98950       94.86901
H         85.21215       55.46842       97.59793
H         87.40187       57.30879       97.03009
H         87.94535       54.28802       96.79923
H         89.19753       55.42914       97.39040
N         87.83035       57.11224       99.64882
C         88.53262       58.28706       99.15832
C         87.63314       59.32210       98.53528
O         86.41844       59.18576       98.56444
H         87.86559       56.93743      100.66544
H         89.29881       57.95705       98.42397
H         89.06421       58.77997      100.00087
N         88.20106       60.40267       97.92875
C         87.42812       61.45736       97.28024
C         86.57312       60.89792       96.15243
O         86.87476       59.83672       95.63125
C         88.38841       62.56510       96.76305
C         87.67468       63.76349       96.12947
O         89.28287       62.01449       95.82873
H         89.23097       60.47104       97.93713
H         86.75526       61.89327       98.05218
H         88.95118       62.93556       97.65301
H         90.11202       62.55997       95.86142
H         86.95793       64.21189       96.84840
H         88.42325       64.53445       95.84921
H         87.14024       63.46579       95.20385
N         85.45175       61.56704       95.76641
C         84.54890       61.17317       94.69263
C         85.28549       61.31466       93.32064
O         85.28536       60.10899       92.61495
C         83.86930       59.77701       94.92569
C         83.43660       59.51212       96.39069
C         82.66146       59.60083       93.97838
C         82.42388       60.49816       96.96907
H         85.20757       62.42925       96.27760
H         83.72151       61.91952       94.71686
H         84.60759       58.97724       94.70292
H         84.33389       59.51894       97.04022
H         83.00577       58.48827       96.45372
H         81.89427       60.38116       94.16114
H         82.94674       59.67494       92.91161
H         82.19306       58.60901       94.13449
H         81.47394       60.47981       96.39884
H         82.19818       60.20482       98.01638
H         82.83784       61.52644       96.97666
N         84.65964       62.37540       92.51453
C         84.99178       62.37984       91.07112
C         86.37059       62.94096       90.71504
O         86.69577       62.90972       89.53547
C         83.87646       63.13319       90.29740
C         83.78567       64.62274       90.65301
O         82.63120       62.53737       90.55871
H         84.78183       63.31046       92.96531
H         84.96059       61.34005       90.68147
H         84.08511       63.08002       89.20265
H         82.58981       61.70392       90.02054
H         84.74322       65.13985       90.43385
H         82.98746       65.10076       90.04599
H         83.53060       64.76717       91.72309
N         87.21375       63.50990       91.62802
C         88.45650       64.16440       91.21862
C         89.47701       63.16143       90.70329
O         90.02544       62.41495       91.50045
C         89.05579       64.98898       92.39077
C         90.36778       65.68761       92.01167
O         88.13593       65.97503       92.78892
H         86.93298       63.56001       92.61586
H         88.20483       64.88708       90.40929
H         89.28858       64.30740       93.24527
H         87.63430       65.62071       93.56828
H         90.20868       66.37919       91.15775
H         90.74622       66.26829       92.87943
H         91.15011       64.94893       91.73691
N         89.80837       63.12350       89.37781
C         90.90533       62.33028       88.82879
C         90.82437       60.87502       89.25406
O         91.66076       60.42143       90.02488
C         92.26880       62.97225       89.16863
C         92.36057       64.40795       88.61423
C         93.78131       64.98918       88.64527
C         94.38477       65.08711       90.05182
N         95.71620       65.69134       89.99542
H         89.28336       63.71778       88.71847
H         90.85183       62.35594       87.71657
H         93.05651       62.35719       88.67872
H         92.44603       62.97196       90.26502
H         91.66194       65.07085       89.16907
H         92.05220       64.40278       87.54534
H         93.74007       66.00772       88.20025
H         94.44199       64.36199       88.00713
H         94.47143       64.07243       90.49664
H         93.72538       65.70544       90.69970
H         96.11815       65.73007       90.95947
H         96.34722       65.11755       89.38915
H         95.65390       66.66354       89.61434
N         89.85216       60.07216       88.74292
C         89.70226       58.66715       89.11402
C         88.27653       58.37025       89.54944
O         88.12801       57.98769       90.69889
C         90.20720       57.70073       88.02069
C         91.71987       57.85798       87.79624
C         92.22917       56.85361       86.80448
O         91.81474       56.85603       85.65645
O         93.15540       55.94909       87.17653
H         89.22344       60.48719       88.04467
H         90.34639       58.44531       89.99671
H         89.68037       57.83032       87.05916
H         90.02357       56.66017       88.37149
H         92.24990       57.70317       88.76249
H         91.95190       58.87953       87.42749
N         87.15897       58.48743       88.76958
C         87.07760       58.90804       87.38526
H         86.43437       59.81025       87.31752
H         88.04111       59.14993       86.92226
H         86.61413       58.09627       86.78705
H         86.25892       58.24986       89.20703
Ca        87.15900       58.93337       93.11267
O         87.81295       55.47179       92.21110
H         87.00959       55.47431       91.63306
H         87.69675       54.68213       92.79672
O         89.86932       60.08638       93.56406
H         90.35018       59.39661       93.04200
H         89.22238       60.47317       92.92278

Ca 1.0



