%chk=apoCaM-CA-Ng.loop4.water5.frame753.chk
%nprocshared=20
%mem=10GB
%nosave
#b3lyp/svp scf=(tight,noincore,xqc) Test 
#IOP(5/87=12) Density=Current Pop=(MK,readradii) iop(6/33=2) iop(6/42=6)

apoCaM-CA-Ng.loop4.water5.frame753 

   -3  1 
C         12.60262       39.53906       -5.59009
C         13.34826       39.31933       -6.87187
O         13.16730       38.27988       -7.48851
H         11.51095       39.51986       -5.78582
H         12.86366       38.73452       -4.87114
H         12.86447       40.51654       -5.13188
N         14.21123       40.26813       -7.33416
C         15.01439       40.14581       -8.54854
C         14.10405       39.99674       -9.75448
O         14.32583       39.12775      -10.58647
C         16.02252       38.97195       -8.41104
C         16.82308       39.03160       -7.13411
O         16.73908       39.98629       -6.37799
O         17.57481       37.98143       -6.76529
H         14.31964       41.14005       -6.79293
H         15.58647       41.09361       -8.66679
H         16.70833       38.92798       -9.28461
H         15.45401       38.01911       -8.38496
N         12.98831       40.77387       -9.85279
C         11.98380       40.57290      -10.89296
C         12.46491       41.13874      -12.23005
O         13.29230       42.03953      -12.21081
C         10.59698       41.16906      -10.46805
C         10.62623       42.71217      -10.29957
C         10.08725       40.45505       -9.19739
C          9.23853       43.31887      -10.07718
H         12.80048       41.43851       -9.08967
H         11.83388       39.47707      -10.98934
H          9.86417       40.95244      -11.26575
H         11.02327       43.16900      -11.23004
H         11.28427       43.01259       -9.45847
H         10.05748       39.35673       -9.36275
H         10.74030       40.66088       -8.32375
H          9.05476       40.76637       -8.94346
H          9.32382       44.42435      -10.02322
H          8.56690       43.05846      -10.92319
H          8.78609       42.97023       -9.12752
N         11.97676       40.72738      -13.44239
C         11.06665       39.59841      -13.62642
C         11.72987       38.26324      -13.32172
O         11.00915       37.29131      -13.14022
C         10.42939       39.59457      -15.03305
C         11.39096       39.45160      -16.18691
O         12.71820       39.32909      -15.99163
O         10.95523       39.45296      -17.32669
H         12.28791       41.24713      -14.27761
H         10.21944       39.71876      -12.93072
H          9.87465       40.54961      -15.16139
H          9.69198       38.76383      -15.08818
N         13.08768       38.13346      -13.23558
C         13.73379       36.89786      -12.83155
C         13.46591       35.73030      -13.75097
O         12.84430       35.87867      -14.79474
H         13.69719       38.94411      -13.41707
H         13.37247       36.63772      -11.81418
H         14.83457       37.05015      -12.77869
N         13.92101       34.50260      -13.37895
C         13.73663       33.29042      -14.16908
C         12.27973       32.90950      -14.40870
O         12.06461       32.01364      -15.21278
C         14.49598       32.09603      -13.52994
C         13.99768       31.69194      -12.15830
O         14.03112       32.55442      -11.12412
O         13.59741       30.55495      -11.96736
H         14.46123       34.45169      -12.50412
H         14.19214       33.48293      -15.16582
H         15.57118       32.35802      -13.44387
H         14.41889       31.21758      -14.20912
N         11.22698       33.50705      -13.77134
C          9.84880       33.11084      -14.02910
C          9.53329       31.68980      -13.59060
O          8.44056       31.23039      -13.88652
H         11.38689       34.26634      -13.09522
H          9.65292       33.21467      -15.11868
H          9.15155       33.79128      -13.49295
N         10.41796       30.94460      -12.85969
C         10.19237       29.57265      -12.41128
C          9.04873       29.45249      -11.41149
O          8.72564       28.33132      -11.04040
C         10.04059       28.59787      -13.60470
C         11.25925       28.67040      -14.54478
C         11.26626       27.61796      -15.62561
N         12.28162       27.58789      -16.52007
O         10.37319       26.78612      -15.69748
H         11.31190       31.36180      -12.58440
H         11.09961       29.23518      -11.86134
H          9.11128       28.79718      -14.17950
H          9.97782       27.56583      -13.19361
H         12.19064       28.54578      -13.95111
H         11.27607       29.66422      -15.03211
H         13.04240       28.28234      -16.47407
H         12.31041       26.87047      -17.25956
N          8.43450       30.55105      -10.87736
C          7.35651       30.47605       -9.89616
C          7.77165       31.03599       -8.53827
O          6.99979       30.88956       -7.60303
C          6.08220       31.19164      -10.42723
C          6.31350       32.69089      -10.70325
C          5.55839       30.50155      -11.69405
H          8.75766       31.48714      -11.14999
H          7.09485       29.41144       -9.70491
H          5.28860       31.10787       -9.65220
H          5.36374       33.17069      -11.01947
H          6.67007       33.20914       -9.78833
H          7.05316       32.85107      -11.51517
H          6.30400       30.55201      -12.51385
H          5.33470       29.43441      -11.48308
H          4.62306       30.99097      -12.03916
N          8.96184       31.68307       -8.34889
C          9.41019       32.18417       -7.05183
C         10.75487       31.55003       -6.71421
O         11.38263       30.98121       -7.59501
C          9.45801       33.72399       -7.13343
C          9.90528       34.41464       -5.87113
N         10.95841       35.26627       -5.89303
O          9.29517       34.23086       -4.82872
H          9.58953       31.84503       -9.14659
H          8.69025       31.89029       -6.25764
H          8.43067       34.08238       -7.36556
H         10.11604       34.02275       -7.97810
H         11.46989       35.45359       -6.76820
H         11.25469       35.75719       -5.03680
N         11.21571       31.52367       -5.42592
C         12.46150       30.82868       -5.08127
C         12.57264       30.57760       -3.57060
O         11.71122       31.01279       -2.82225
C         13.66534       31.66507       -5.60014
C         14.89495       30.84032       -5.89297
C         16.07324       30.97444       -5.14027
C         14.87123       29.94197       -6.97420
C         17.20250       30.20933       -5.45876
C         16.00230       29.19133       -7.29919
C         17.17028       29.31785       -6.54294
O         18.25194       28.58202       -6.86983
H         10.62293       31.93266       -4.69268
H         12.42401       29.83249       -5.57417
H         13.86332       32.48756       -4.88026
H         13.42144       32.16057       -6.56414
H         16.11643       31.65941       -4.30493
H         13.97926       29.83709       -7.57944
H         18.10298       30.31275       -4.86678
H         15.97037       28.51363       -8.14349
H         19.08195       28.63611       -6.37564
N         13.62825       29.87995       -3.05090
C         13.83238       29.66740       -1.61866
C         15.16670       30.29234       -1.19949
O         16.09684       29.55765       -0.89684
C         13.78381       28.16175       -1.28121
C         12.40033       27.55492       -1.54996
C         12.33988       26.13645       -1.06008
O         12.52999       25.86602        0.24657
O         12.10146       25.22523       -1.83563
H         14.32979       29.48426       -3.68958
H         13.02737       30.12335       -1.01201
H         13.99827       28.05693       -0.19324
H         14.56086       27.60403       -1.84944
H         12.17960       27.59702       -2.63866
H         11.62233       28.13544       -1.00813
N         15.36960       31.64487       -1.15191
C         14.32836       32.64162       -1.38944
C         13.27546       32.60015       -0.29046
O         13.46520       31.91653        0.70781
C         14.92615       34.06048       -1.48464
C         15.86090       34.19443       -2.69587
C         16.39157       35.58959       -2.80716
O         17.16206       36.09817       -1.82776
O         16.13296       36.26667       -3.78902
H         16.31743       31.97347       -0.90748
H         13.84920       32.43306       -2.36012
H         15.46682       34.30613       -0.54347
H         14.10358       34.79734       -1.61596
H         15.29136       33.94821       -3.61770
H         16.71981       33.49616       -2.61628
N         12.11554       33.30075       -0.43166
C         11.04700       33.28354        0.54778
H         10.12612       32.87992        0.07637
H         11.28764       32.65439        1.43073
H         10.84928       34.31780        0.89696
H         11.96412       33.85645       -1.28665
Ca        18.31644       38.05133       -4.63396
O         18.07292       41.19278       -3.87342
H         18.96567       41.19079       -3.44560
H         18.23283       41.56491       -4.77678
O         19.52912       35.52393       -5.26586
H         20.20195       35.94709       -5.85670
H         19.17668       34.76256       -5.79064
O         17.13819       39.09999       -1.68304
H         16.79400       39.90909       -1.22840
H         17.67297       38.63611       -0.99078
O         20.34781       39.58432       -6.00116
H         19.71232       39.69065       -6.75267
H         21.21653       39.39646       -6.43558
O         20.37856       37.78878       -2.65259
H         20.41919       38.13760       -1.72738
H         20.50355       36.81102       -2.55961

Ca 1.0



