%chk=apoCaM-CA-Ng.loop1.water3.frame90.chk
%nprocshared=20
%mem=10GB
%nosave
#b3lyp/svp scf=(tight,noincore,xqc) Test 
#IOP(5/87=12) Density=Current Pop=(MK,readradii) iop(6/33=2) iop(6/42=6)

apoCaM-CA-Ng.loop1.water3.frame90 

   0  1 
C         66.78830       65.71635       -1.24550
C         67.29822       65.80656        0.16336
O         66.86008       66.67267        0.90638
H         66.03022       66.50311       -1.44548
H         67.63360       65.84910       -1.95400
H         66.32709       64.72091       -1.41531
N         68.25156       64.93363        0.58899
C         68.84511       64.95750        1.92323
C         70.33927       65.29042        1.86226
O         70.99009       65.24170        2.89694
C         68.54623       63.63424        2.67035
C         69.14642       62.39811        2.05507
O         70.02510       61.66038        2.76003
O         68.80689       62.02522        0.94393
H         68.59318       64.23134       -0.08391
H         68.37766       65.75403        2.54327
H         67.44403       63.49675        2.73593
H         68.92659       63.72813        3.71121
N         70.92961       65.71283        0.70205
C         72.32935       66.11349        0.56952
C         72.39533       67.59682        0.21534
O         71.71638       67.97227       -0.73181
C         72.99233       65.33597       -0.58267
C         73.10832       63.82542       -0.33433
C         73.71904       63.08463       -1.54187
C         75.14587       63.54754       -1.89677
N         75.67887       62.78811       -3.02696
H         70.35421       65.80639       -0.14748
H         72.89738       65.89888        1.48660
H         74.01299       65.75224       -0.70710
H         72.42090       65.50790       -1.52248
H         72.09504       63.40405       -0.15485
H         73.72750       63.64275        0.57092
H         73.05931       63.22506       -2.42613
H         73.74644       61.99958       -1.30143
H         75.81047       63.41296       -1.01503
H         75.14654       64.62144       -2.17811
H         76.64098       63.13456       -3.24688
H         75.73002       61.77163       -2.78835
H         75.07298       62.92550       -3.86876
N         73.18982       68.52617        0.83727
C         74.13177       68.32876        1.93727
C         75.23216       67.33206        1.60123
O         75.25713       66.25909        2.18812
C         73.46011       68.01361        3.28704
C         72.53763       69.09954        3.74473
O         72.86303       69.82695        4.83215
O         71.46861       69.28012        3.18485
H         73.14820       69.48786        0.46423
H         74.64250       69.29643        2.13751
H         74.27374       67.93975        4.04164
H         72.91810       67.05087        3.30154
N         76.24814       67.61679        0.73957
C         76.37823       68.86128       -0.00606
C         77.70448       68.87595       -0.74492
O         77.98126       67.90339       -1.43331
H         76.98435       66.89944        0.63669
H         76.32141       69.71973        0.68881
H         75.54391       68.92650       -0.73641
N         78.60777       69.90029       -0.67671
C         78.33690       71.23602       -0.15214
C         78.78881       71.39721        1.28957
O         79.94781       71.15483        1.59693
C         79.04532       72.27530       -1.05499
C         78.73487       73.70208       -0.67631
O         78.16062       74.43297       -1.46750
O         79.11326       74.19206        0.52001
H         79.47566       69.78061       -1.22462
H         77.25479       71.46925       -0.25620
H         78.70568       72.10807       -2.10184
H         80.14703       72.12858       -1.02604
N         77.92889       71.93784        2.19792
C         78.31180       72.35627        3.53654
C         78.55978       71.22807        4.50286
O         78.49839       70.06459        4.13358
H         76.97601       72.18348        1.88886
H         77.46742       72.94279        3.96065
H         79.19610       73.02822        3.48671
N         78.78781       71.54054        5.81224
C         78.90461       70.55381        6.88415
C         77.62909       69.73019        6.93206
O         76.55142       70.28481        6.76159
C         79.16567       71.23671        8.25095
C         80.50086       72.00122        8.25550
O         79.20850       70.25282        9.25342
H         78.81574       72.54134        6.06026
H         79.76853       69.88142        6.68065
H         78.32843       71.94397        8.45801
H         79.10168       70.72092       10.12280
H         81.34439       71.30703        8.05203
H         80.51711       72.80984        7.49730
H         80.66395       72.47028        9.24890
N         77.69044       68.38408        7.12361
C         76.54954       67.49410        6.94907
C         76.09566       66.95440        8.29304
O         76.90212       66.36920        9.00307
C         76.95174       66.33408        5.98366
C         77.50000       66.89180        4.64471
C         75.75896       65.38994        5.74490
C         78.04949       65.81223        3.70873
H         78.60243       67.95714        7.35068
H         75.69843       68.04100        6.48474
H         77.76768       65.74931        6.46538
H         78.35280       67.56859        4.85557
H         76.71509       67.47967        4.12495
H         75.41971       64.96415        6.70391
H         74.91361       65.93092        5.27061
H         76.03701       64.52468        5.11334
H         77.26208       65.10825        3.37785
H         78.47104       66.29358        2.80154
H         78.85672       65.24189        4.21529
N         74.78352       67.06231        8.66653
C         74.24449       66.47371        9.89175
C         73.38772       65.24359        9.60025
O         73.02198       64.56957       10.55203
C         73.48039       67.52348       10.73723
C         72.23027       68.07690       10.03978
O         74.33258       68.59364       11.05373
H         74.12744       67.51834        8.01579
H         75.08451       66.09704       10.51617
H         73.12466       67.03875       11.67810
H         74.86174       68.31720       11.84734
H         71.71410       68.79211       10.71492
H         72.49083       68.61762        9.10798
H         71.51991       67.25893        9.79578
N         73.08461       64.85533        8.32220
C         72.43589       63.59976        7.95040
C         70.99519       63.48117        8.41719
O         70.67511       63.79564        9.55416
C         73.25033       62.35628        8.40278
C         74.69173       62.38019        7.87972
O         72.61826       61.17121        7.98060
H         73.38033       65.44524        7.53482
H         72.41950       63.56238        6.83668
H         73.29550       62.32515        9.51076
H         72.58410       61.18069        6.98761
H         74.70223       62.41498        6.76865
H         75.23657       63.25951        8.27923
H         75.22567       61.46511        8.21124
N         70.09988       62.86563        7.59579
C         68.74125       62.52510        7.99303
C         67.90771       63.77627        8.15618
O         67.40163       64.01988        9.24241
C         68.09964       61.58420        6.94149
C         68.82349       60.22504        6.87416
C         68.25852       59.34700        5.74785
C         68.97491       57.98928        5.62707
N         68.74957       57.13180        6.79253
H         70.42939       62.55966        6.66746
H         68.76755       61.97098        8.95926
H         68.12854       62.06891        5.94102
H         67.03566       61.39631        7.20642
H         68.70986       59.72421        7.85796
H         69.90619       60.36956        6.67640
H         68.40099       59.88818        4.78611
H         67.16968       59.18037        5.89465
H         70.06679       58.14561        5.47745
H         68.58046       57.47036        4.72554
H         67.72408       56.98442        6.93615
H         69.20054       56.20389        6.62253
H         69.17525       57.54625        7.65105
N         67.69622       64.59525        7.09079
C         66.83423       65.76704        7.11967
C         65.67702       65.50752        6.18199
O         65.90355       65.30319        4.99614
C         67.61989       66.99998        6.65353
C         68.71028       67.41808        7.64932
C         69.61320       68.40864        6.98799
O         70.26252       68.05193        6.01653
O         69.74305       69.67505        7.42623
H         68.13637       64.35253        6.18963
H         66.43649       65.95789        8.14099
H         66.93816       67.86804        6.51045
H         68.07233       66.75214        5.66607
H         69.33773       66.54981        7.94556
H         68.23907       67.84403        8.56201
N         64.40188       65.47645        6.65868
C         63.24827       65.19933        5.82824
H         62.54656       66.05711        5.87629
H         63.52121       65.02622        4.76592
H         62.73654       64.29051        6.20832
H         64.23248       65.64275        7.66207
Ca        71.21813       70.70031        6.08161
O         68.46701       70.00136        4.19302
H         67.69159       69.44979        4.46605
H         68.75729       69.60920        3.33165
O         72.59136       73.29224        4.85911
H         73.22166       73.66972        5.52296
H         73.16619       72.79076        4.22774
O         73.30559       71.13305        8.24103
H         72.67739       71.89548        8.17209
H         74.14269       71.46397        7.82947

Ca 1.0



