%chk=apoCaM-CA-Ng.loop3.water6.frame383.chk
%nprocshared=20
%mem=10GB
%nosave
#b3lyp/svp scf=(tight,noincore,xqc) Test 
#IOP(5/87=12) Density=Current Pop=(MK,readradii) iop(6/33=2) iop(6/42=6)

apoCaM-CA-Ng.loop3.water6.frame383 

   0  1 
C         37.77107      120.36919        7.18079
C         38.82084      120.83868        6.21500
O         39.98661      120.83665        6.57068
H         36.75429      120.43345        6.73978
H         37.96623      119.31363        7.46283
H         37.79940      120.99933        8.09462
N         38.47808      121.28779        4.97477
C         39.41332      121.74306        3.94256
C         40.17472      123.03148        4.29479
O         40.83208      123.56804        3.41422
C         40.36163      120.59017        3.53281
C         41.11499      120.88969        2.26566
O         40.50829      121.09121        1.22574
O         42.45979      120.92253        2.26404
H         37.47813      121.28370        4.72116
H         38.78384      121.99047        3.05815
H         39.76098      119.67278        3.34848
H         41.07766      120.37154        4.35429
N         40.12913      123.59372        5.53737
C         40.76433      124.85031        5.91051
C         41.91779      124.64848        6.88950
O         42.50375      125.64352        7.29420
C         39.67878      125.81433        6.46507
C         38.94469      125.30927        7.73477
C         37.75250      126.18819        8.14008
C         38.14200      127.59391        8.60884
N         36.94900      128.35182        8.98820
H         39.61309      123.12666        6.27715
H         41.21037      125.33803        5.01655
H         38.92616      125.96176        5.65979
H         40.14838      126.79759        6.67658
H         39.65659      125.20527        8.58194
H         38.49087      124.31886        7.54633
H         37.22442      125.68062        8.97785
H         37.04580      126.25677        7.28360
H         38.67078      128.13908        7.79915
H         38.82117      127.51109        9.48619
H         37.23479      129.29850        9.32630
H         36.31889      128.46385        8.16037
H         36.43425      127.85941        9.75453
N         42.33207      123.40764        7.29125
C         43.45133      123.21026        8.21073
C         44.76900      123.19839        7.43878
O         44.75431      123.02663        6.22733
C         43.20186      121.90730        9.01374
C         44.13293      121.66202       10.16922
O         43.64406      121.62079       11.42307
O         45.31580      121.44195        9.98525
H         41.85727      122.56980        6.92845
H         43.45640      124.05565        8.93457
H         43.22949      121.03117        8.33189
H         42.17562      121.97271        9.43726
N         45.95388      123.42032        8.07780
C         47.25036      123.40757        7.41088
C         47.73700      122.01959        7.01740
O         48.83375      121.92909        6.48508
H         45.93654      123.66488        9.07762
H         48.00942      123.81179        8.11537
H         47.22184      124.07932        6.52511
N         47.00197      120.89685        7.26014
C         47.42976      119.53810        6.94562
C         46.52014      118.92282        5.88488
O         46.70582      117.75935        5.56026
C         47.35616      118.68137        8.23672
C         48.33786      119.08237        9.34950
N         49.72310      118.82447        8.97773
O         48.17863      120.41891        9.72161
H         46.07545      120.98409        7.69289
H         48.46717      119.51281        6.54585
H         47.56639      117.62076        7.99684
H         46.32281      118.72907        8.64367
H         49.82593      117.80057        8.78981
H         50.31899      119.03209        9.81128
N         45.51520      119.63510        5.29937
C         44.54780      119.07168        4.37526
C         43.67499      118.05197        5.06879
O         43.47011      116.96527        4.54980
H         45.38730      120.62910        5.52799
H         45.04132      118.66100        3.46813
H         43.87754      119.89636        4.05925
N         43.14705      118.36020        6.28262
C         42.27125      117.50649        7.07304
C         43.02763      116.98703        8.26820
O         43.74567      117.73814        8.91289
C         41.07208      118.34096        7.53351
C         40.24572      117.69242        8.61673
C         39.52194      116.51509        8.37860
C         40.21248      118.27547        9.89621
C         38.77640      115.93039        9.40912
C         39.47801      117.68553       10.92351
C         38.75680      116.50906       10.68430
O         38.04705      115.92703       11.67128
H         43.41820      119.26277        6.70256
H         41.89756      116.63688        6.48788
H         40.43814      118.54717        6.65045
H         41.46884      119.29867        7.93635
H         39.53562      116.05280        7.39986
H         40.76806      119.18211       10.10590
H         38.22103      115.02123        9.21941
H         39.47448      118.14384       11.90464
H         38.01860      116.29449       12.56663
N         42.86267      115.68880        8.64405
C         43.61982      115.08111        9.72575
C         45.05461      115.03117        9.25432
O         45.92027      115.61106        9.89229
C         43.02887      113.68298       10.09851
C         41.57822      113.87921       10.63237
C         43.90981      112.98244       11.14958
C         40.84428      112.59453       11.01700
H         42.19607      115.10533        8.11535
H         43.54601      115.71189       10.64091
H         43.00125      113.03647        9.19284
H         40.96575      114.36417        9.84855
H         41.59030      114.55143       11.51847
H         43.96156      113.58236       12.08261
H         43.51770      111.97281       11.38695
H         44.93691      112.83145       10.75895
H         41.33528      112.08764       11.87157
H         39.81052      112.85167       11.33568
H         40.78597      111.90424       10.15017
N         45.34986      114.42948        8.07080
C         46.67130      114.46699        7.46847
C         47.67840      113.73293        8.31824
O         48.72649      114.29754        8.59898
C         46.63975      113.88162        6.04170
O         45.68168      114.51417        5.22653
H         44.58217      113.98304        7.54474
H         46.98932      115.52520        7.35582
H         46.38609      112.80317        6.08802
H         47.64336      113.99026        5.57308
H         45.64611      115.47653        5.46316
N         47.41506      112.47440        8.78649
C         48.36815      111.68259        9.55985
C         48.84610      112.38531       10.83335
O         49.84824      111.95556       11.38947
C         49.55204      111.31086        8.65185
H         46.50054      112.04747        8.57409
H         47.89591      110.71850        9.85188
H         49.17711      110.77885        7.75043
H         50.11827      112.20634        8.32428
H         50.24794      110.62737        9.18289
N         48.19323      113.46803       11.35314
C         48.71730      114.27793       12.44668
C         47.81853      114.21538       13.66382
O         46.63870      114.52247       13.55843
C         48.85249      115.72559       11.96919
H         47.30023      113.76448       10.93779
H         49.73556      113.93699       12.73395
H         49.52453      115.77230       11.08606
H         47.86309      116.14167       11.68254
H         49.28486      116.35402       12.77539
N         48.33613      113.83509       14.86987
C         47.57671      113.74209       16.11158
C         46.47718      112.70868       15.97179
O         45.30857      113.01730       16.16633
C         47.05421      115.12264       16.58366
C         48.19740      116.10714       16.87280
C         47.66693      117.39561       17.43814
O         47.88472      118.45436       16.87269
O         46.96678      117.39098       18.58907
H         49.33548      113.58426       14.92057
H         48.25687      113.36933       16.91076
H         46.48886      114.96701       17.52964
H         46.35979      115.56366       15.83725
H         48.76750      116.30725       15.93909
H         48.88909      115.66481       17.62160
N         46.80159      111.43052       15.63858
C         45.80451      110.39249       15.50741
H         45.07115      110.66796       14.72033
H         46.29182      109.43551       15.22437
H         45.27798      110.25122       16.47533
H         47.79015      111.18464       15.47552
Ca        47.30651      120.35231       11.82359
O         44.49420      120.04103       13.94663
H         44.25990      120.77490       14.56874
H         44.15451      119.22262       14.38823
O         49.76711      121.47840       13.15390
H         50.00324      120.52098       13.06364
H         49.98246      121.87120       12.27079
O         47.53466      118.33162       14.00159
H         47.20304      119.18998       14.36737
H         48.51336      118.46027       13.92545
O         45.53207      117.96858       11.48356
H         44.95164      117.43022       12.07763
H         44.93727      118.67399       11.12536
O         46.74019      123.54846       11.61773
H         46.96422      124.33430       12.17612
H         47.57365      123.34812       11.12183
O         46.79461      122.26924       14.44516
H         47.52841      122.93038       14.37683
H         47.00788      121.74487       15.25731

Ca 1.0



