%chk=apoCaM-CA-Ng.loop1.water3.frame989.chk
%nprocshared=20
%mem=10GB
%nosave
#b3lyp/svp scf=(tight,noincore,xqc) Test 
#IOP(5/87=12) Density=Current Pop=(MK,readradii) iop(6/33=2) iop(6/42=6)

apoCaM-CA-Ng.loop1.water3.frame989 

   0  1 
C         73.63479       80.84163       43.10735
C         73.34064       79.80162       44.15341
O         73.09702       78.65850       43.79681
H         74.52529       80.53474       42.51857
H         72.76620       80.94771       42.42568
H         73.84827       81.83247       43.56304
N         73.37434       80.12913       45.47470
C         73.14713       79.18152       46.56281
C         72.01432       79.64210       47.48801
O         71.90131       80.82506       47.77507
C         74.46038       78.81193       47.29925
C         75.44870       79.88975       47.67436
O         76.42220       79.57979       48.34174
O         75.32509       81.16771       47.28051
H         73.59276       81.10495       45.71888
H         72.81489       78.20219       46.15388
H         75.03745       78.12532       46.64352
H         74.17809       78.23732       48.20961
N         71.08720       78.73071       47.92528
C         69.85917       79.06627       48.65828
C         70.04656       79.61285       50.07459
O         69.04686       80.01578       50.65376
C         68.92657       77.82903       48.73720
C         68.32870       77.46360       47.36889
C         67.32021       76.31255       47.49994
C         66.52810       76.11677       46.19969
N         65.52010       75.06779       46.35411
H         71.22530       77.74595       47.65027
H         69.32738       79.85862       48.08685
H         68.06272       78.06846       49.39565
H         69.46709       76.96509       49.18678
H         69.11904       77.19456       46.63493
H         67.78928       78.36105       46.99472
H         66.59163       76.55829       48.30295
H         67.85150       75.37524       47.77762
H         67.21616       75.85627       45.36571
H         66.01271       77.07044       45.94473
H         65.98165       74.15016       46.54865
H         64.86779       75.30745       47.13661
H         64.96592       74.99206       45.47066
N         71.24707       79.66369       50.71051
C         71.40357       80.21161       52.06620
C         70.96491       81.68692       52.13078
O         71.24643       82.42873       51.20331
C         72.87330       80.03985       52.54127
C         73.87951       80.73717       51.66122
O         73.43922       81.50866       50.65559
O         75.07624       80.58118       51.83902
H         72.07421       79.28958       50.22350
H         70.79286       79.60625       52.76672
H         73.10246       78.95088       52.52820
H         72.98549       80.40020       53.58638
N         70.28329       82.23428       53.17383
C         69.79090       81.53002       54.33634
C         68.66426       80.61692       53.95207
O         67.86163       80.99786       53.11472
H         70.08554       83.24735       53.13482
H         69.34874       82.28746       55.02056
H         70.60637       81.01781       54.89131
N         68.50948       79.41069       54.55802
C         67.38554       78.52710       54.26822
C         66.04891       79.22467       54.51025
O         65.18548       79.14957       53.64864
C         67.48160       77.19942       55.05541
C         67.32779       77.33156       56.54856
O         66.40726       76.76518       57.11619
O         68.20937       78.04654       57.27246
H         69.20822       79.12658       55.26034
H         67.44108       78.23731       53.19395
H         68.45847       76.71600       54.83608
H         66.68337       76.52295       54.67614
N         65.82082       79.94238       55.65038
C         64.55577       80.59505       55.97040
C         64.13087       81.74092       55.05686
O         63.06658       82.28611       55.30685
H         66.57036       80.00094       56.35543
H         64.62723       81.01331       56.99812
H         63.75406       79.82526       55.97413
N         64.87055       82.15502       53.98695
C         64.44835       83.20199       53.05390
C         65.50919       84.29941       52.97647
O         66.56885       84.15526       53.56958
C         64.22851       82.55255       51.65606
C         63.19218       81.42419       51.71132
O         63.78471       83.50823       50.72912
H         65.75494       81.68909       53.78728
H         63.49560       83.66463       53.39070
H         65.20519       82.12794       51.31984
H         63.99495       83.15738       49.82421
H         63.51507       80.61746       52.39701
H         62.21174       81.81720       52.05325
H         63.06906       80.97864       50.70146
N         65.29629       85.42171       52.22256
C         66.33165       86.43343       52.00490
C         66.66623       87.17690       53.29319
O         67.73946       87.76209       53.36569
C         65.95622       87.37912       50.81580
C         65.60934       86.58970       49.51486
C         67.06047       88.41069       50.51254
C         66.69486       85.61991       49.03131
H         64.38875       85.53401       51.75652
H         67.25349       85.88743       51.70918
H         65.04602       87.95586       51.09431
H         65.38675       87.31403       48.70156
H         64.68277       85.99889       49.65770
H         68.02082       87.91478       50.26280
H         66.75668       89.05419       49.65902
H         67.22191       89.08937       51.37317
H         66.35607       85.12814       48.09562
H         67.64712       86.14679       48.82320
H         66.87073       84.81628       49.77651
N         65.83558       87.14000       54.37389
C         66.20000       87.66278       55.68570
C         65.23600       88.74198       56.14728
O         64.31511       89.08956       55.41692
C         66.28945       86.47642       56.68373
C         64.93928       85.78718       56.94112
O         67.20956       85.54124       56.18124
H         64.92085       86.67493       54.28515
H         67.20877       88.13100       55.65588
H         66.67019       86.86292       57.65445
H         67.45827       84.94163       56.93161
H         65.07697       84.96825       57.67760
H         64.20742       86.50808       57.36252
H         64.52203       85.34115       56.01589
N         65.38706       89.29966       57.38116
C         64.50120       90.30935       57.93443
C         65.31979       91.49545       58.42066
O         65.11304       92.59523       57.92939
C         63.62755       89.66709       59.04956
C         62.67589       90.66929       59.71109
O         64.42769       89.06361       60.03443
H         66.15020       88.96232       57.98584
H         63.79176       90.67524       57.15681
H         63.01181       88.88215       58.54843
H         63.91369       88.30014       60.40667
H         63.24270       91.46409       60.23681
H         62.01336       91.13670       58.95352
H         62.04425       90.14547       60.46017
N         66.22466       91.34736       59.43323
C         66.89610       92.46481       60.08170
C         68.34833       92.08490       60.32329
O         68.58765       91.05311       60.93649
C         66.12098       92.73393       61.38853
C         66.28615       94.12367       62.01507
C         67.66651       94.42716       62.59925
C         67.70832       95.80820       63.28527
N         66.78994       95.90077       64.42560
H         66.34116       90.42028       59.86209
H         66.81635       93.37988       59.45468
H         66.29278       91.92302       62.12988
H         65.04142       92.70580       61.12316
H         65.53798       94.15933       62.83247
H         66.01783       94.90109       61.26539
H         68.41707       94.43070       61.78382
H         67.94334       93.64273       63.33545
H         67.46792       96.60849       62.54972
H         68.74523       95.97857       63.64787
H         65.79457       95.89716       64.10859
H         66.95654       95.11238       65.09226
H         66.95405       96.80463       64.92393
N         69.37596       92.85671       59.86902
C         70.77029       92.45675       60.03084
C         71.07543       91.20699       59.20389
O         71.53052       90.23909       59.79689
C         71.73209       93.63439       59.74988
C         73.20599       93.23944       59.95648
C         74.10347       94.44041       59.87602
O         73.96706       95.44260       60.76606
O         74.97403       94.50548       59.02314
H         69.16067       93.75297       59.40687
H         70.94352       92.21703       61.10630
H         71.47318       94.44026       60.47221
H         71.60681       94.05161       58.73463
H         73.50032       92.49554       59.18307
H         73.34430       92.77780       60.95783
N         70.85835       91.09604       57.85906
C         70.26138       92.11515       57.02216
H         69.23504       92.34973       57.36981
H         70.88396       93.02592       56.99463
H         70.18058       91.74015       55.97987
H         71.10659       90.20540       57.40000
Ca        74.43969       82.35789       48.88557
O         75.55889       83.68206       51.27164
H         76.13282       83.01438       50.81791
H         75.74431       84.53000       50.79599
O         70.20222       83.42573       48.56171
H         69.61493       83.92490       49.18348
H         69.61461       82.73435       48.16558
O         72.37219       85.23847       50.09103
H         71.61154       85.38421       50.70824
H         72.96363       86.01901       50.23708

Ca 1.0



