%chk=apoCaM-CA-Ng.loop4.water5.frame801.chk
%nprocshared=20
%mem=10GB
%nosave
#b3lyp/svp scf=(tight,noincore,xqc) Test 
#IOP(5/87=12) Density=Current Pop=(MK,readradii) iop(6/33=2) iop(6/42=6)

apoCaM-CA-Ng.loop4.water5.frame801 

   -3  1 
C         -8.88230       91.43272       77.12292
C        -10.35977       91.46714       77.39201
O        -10.95026       90.41771       77.58230
H         -8.35695       90.96821       77.98350
H         -8.68044       90.83425       76.21100
H         -8.47313       92.45350       76.96852
N        -11.02932       92.64974       77.44015
C        -12.46028       92.77133       77.70273
C        -12.81846       92.16077       79.05172
O        -13.75967       91.38454       79.15269
C        -13.30649       92.18940       76.54642
C        -13.02050       92.87564       75.24001
O        -13.90596       93.48835       74.66576
O        -11.79520       92.80793       74.68630
H        -10.49790       93.52375       77.30544
H        -12.69326       93.85753       77.77296
H        -14.38292       92.32775       76.79079
H        -13.12022       91.10109       76.42661
N        -12.07068       92.47420       80.14284
C        -12.36443       91.99271       81.48990
C        -13.63787       92.67296       81.99455
O        -13.69286       93.89196       81.91547
C        -11.13556       92.20605       82.44465
C        -10.67417       93.68252       82.59551
C         -9.98315       91.28925       81.97587
C         -9.59587       93.86720       83.66614
H        -11.24751       93.07109       79.98992
H        -12.52120       90.89566       81.44140
H        -11.42910       91.86694       83.45755
H        -11.53079       94.30656       82.91483
H        -10.28379       94.08576       81.63955
H        -10.32998       90.23406       81.92320
H         -9.61684       91.58588       80.97038
H         -9.13222       91.30055       82.68370
H         -9.96689       93.50670       84.64931
H         -8.66126       93.33186       83.40630
H         -9.34818       94.94545       83.75580
N        -14.73507       92.01501       82.48787
C        -14.86019       90.57986       82.74823
C        -16.29759       90.26449       83.15421
O        -16.75407       90.76811       84.17208
C        -13.88306       90.15989       83.87813
C        -14.02072       88.73563       84.32857
O        -15.12331       88.35227       84.99250
O        -13.10388       87.94435       84.17342
H        -15.55011       92.60706       82.71837
H        -14.63012       90.01362       81.81955
H        -14.02968       90.80982       84.76835
H        -12.85078       90.28487       83.53150
N        -17.06517       89.43233       82.39233
C        -18.43233       89.06236       82.72690
C        -18.54757       87.56248       82.78604
O        -19.29188       87.00096       81.99522
H        -16.66864       89.04172       81.52341
H        -19.10479       89.44867       81.92943
H        -18.76283       89.49772       83.69315
N        -17.81286       86.84344       83.68354
C        -17.77801       85.38398       83.69972
C        -16.95856       84.82562       84.85911
O        -17.48773       83.98746       85.57739
C        -17.29857       84.80677       82.33613
C        -16.07987       85.46518       81.72510
O        -16.18887       86.05126       80.65995
O        -14.86698       85.38959       82.29821
H        -17.23598       87.35991       84.35896
H        -18.81214       84.99620       83.84942
H        -18.12582       84.93571       81.60867
H        -17.15001       83.70844       82.42087
N        -15.66790       85.19749       85.10236
C        -14.84285       84.51040       86.08593
C        -14.44387       83.12197       85.60035
O        -13.88667       82.36238       86.37814
H        -15.24267       85.95831       84.56306
H        -15.39144       84.46177       87.05214
H        -13.90192       85.07690       86.25948
N        -14.64716       82.75225       84.29981
C        -14.30003       81.47310       83.70051
C        -12.80599       81.17832       83.73162
O        -12.42905       80.02056       83.60983
C        -15.20484       80.33396       84.21736
C        -16.69088       80.70369       84.02523
C        -17.61601       79.53886       84.25621
N        -17.66967       78.91076       85.45207
O        -18.33891       79.16238       83.34516
H        -15.06793       83.41957       83.64988
H        -14.53809       81.54854       82.61485
H        -15.00067       80.10805       85.28556
H        -14.98499       79.42555       83.61402
H        -16.84513       81.06108       82.98242
H        -16.96354       81.53075       84.71406
H        -17.07449       79.21245       86.23592
H        -18.31298       78.11717       85.59162
N        -11.89412       82.19467       83.78700
C        -10.44750       82.00236       83.69069
C         -9.83771       82.79792       82.53325
O         -8.62753       82.72892       82.37239
C         -9.75317       82.41669       85.02280
C         -9.95964       83.90338       85.37124
C        -10.21696       81.53320       86.18696
H        -12.23871       83.15985       83.88957
H        -10.20713       80.93122       83.50864
H         -8.65879       82.24789       84.90762
H         -9.39347       84.15933       86.29158
H         -9.58452       84.55579       84.55466
H        -11.02992       84.13429       85.55116
H        -11.30232       81.66006       86.37559
H        -10.01341       80.46509       85.96008
H         -9.66285       81.80068       87.11212
N        -10.58669       83.61117       81.72624
C         -9.99957       84.53629       80.75911
C        -10.50131       84.26227       79.35103
O        -11.47228       83.53626       79.18771
C        -10.39139       85.95393       81.22502
C         -9.88844       87.06510       80.35048
N        -10.76127       87.89634       79.73794
O         -8.68680       87.22844       80.20348
H        -11.60884       83.64740       81.83784
H         -8.89234       84.43746       80.74842
H         -9.99892       86.11789       82.25210
H        -11.50204       86.00599       81.28068
H        -11.77999       87.77928       79.84792
H        -10.41260       88.66294       79.15192
N         -9.84951       84.79498       78.26973
C        -10.30922       84.57415       76.90266
C         -9.24962       84.93097       75.87367
O         -8.60487       85.96183       76.00901
C        -11.67694       85.27835       76.63859
C        -11.69584       86.44842       75.66487
C        -11.04788       87.66719       75.93611
C        -12.40748       86.31612       74.45736
C        -11.12918       88.72800       75.01992
C        -12.48664       87.37463       73.55180
C        -11.86008       88.58680       73.83397
O        -11.97369       89.60850       72.96231
H         -8.98067       85.32526       78.42810
H        -10.47830       83.47769       76.80413
H        -12.15517       85.58798       77.59343
H        -12.34603       84.49361       76.22623
H        -10.49047       87.79942       76.85321
H        -12.91301       85.39087       74.21477
H        -10.63492       89.66582       75.22425
H        -13.04570       87.25412       72.63275
H        -11.57932       90.47511       73.13119
N         -9.10067       84.16341       74.75488
C         -8.22042       84.53291       73.65648
C         -9.08223       85.11509       72.54920
O         -9.88694       84.37206       72.00373
C         -7.45532       83.29040       73.13648
C         -6.54884       83.61029       71.93188
C         -5.97820       82.35455       71.33530
O         -6.22914       82.05965       70.17660
O         -5.19249       81.54599       72.07047
H         -9.72552       83.35292       74.62561
H         -7.48060       85.26796       74.01013
H         -8.20281       82.52831       72.82029
H         -6.84340       82.84893       73.95345
H         -5.72525       84.28607       72.24505
H         -7.13718       84.12229       71.13971
N         -9.02308       86.41732       72.14039
C         -8.21824       87.47752       72.74480
C         -6.72747       87.23140       72.60838
O         -6.25226       87.02034       71.50105
C         -8.55533       88.83072       72.08376
C         -7.88708       90.00523       72.81640
C         -8.23299       91.30884       72.16651
O         -9.51590       91.70191       72.08449
O         -7.35219       92.02396       71.71737
H         -9.66083       86.68346       71.37281
H         -8.50637       87.56216       73.81595
H         -9.65257       88.97997       72.11821
H         -8.24728       88.81651       71.01440
H         -6.78308       89.88124       72.81103
H         -8.23393       90.02931       73.87176
N         -5.92436       87.31834       73.70723
C         -4.48468       87.17126       73.66464
H         -4.01297       88.12051       73.99805
H         -4.17740       86.35791       74.35352
H         -4.11247       86.93554       72.64615
H         -6.34655       87.53615       74.62280
Ca       -11.41805       93.82900       72.70951
O        -11.66342       95.24448       69.79477
H        -12.01351       96.15677       69.63518
H        -12.29792       94.64758       69.32456
O        -14.31580       93.34036       71.66241
H        -15.08682       93.84364       71.29892
H        -14.71124       92.51390       72.03798
O        -12.94850       96.44171       72.48775
H        -13.75240       96.15897       71.98372
H        -13.16346       96.23848       73.43268
O        -12.15803       91.43343       70.41550
H        -11.45978       90.73159       70.42691
H        -12.04386       91.88153       69.54035
O         -8.99688       94.79752       71.17920
H         -8.08255       94.86510       71.55212
H         -8.97978       93.98082       70.61955

Ca 1.0



