%chk=apoCaM-CA-Ng.loop2.water4.frame1414.chk
%nprocshared=20
%mem=10GB
%nosave
#b3lyp/svp scf=(tight,noincore,xqc) Test 
#IOP(5/87=12) Density=Current Pop=(MK,readradii) iop(6/33=2) iop(6/42=6)

apoCaM-CA-Ng.loop2.water4.frame1414 

   -2  1 
C         81.92688       82.44947       -3.80439
C         81.47420       81.03251       -4.05659
O         82.34972       80.18401       -4.14439
H         82.64052       82.73390       -4.60576
H         81.14274       83.22132       -3.80811
H         82.45020       82.49757       -2.82764
N         80.17423       80.63922       -4.20797
C         78.98498       81.47888       -4.06743
C         78.24108       81.67202       -5.38115
O         77.25615       82.39915       -5.37167
C         78.07166       80.93189       -2.94113
C         77.55846       79.52537       -3.10825
O         77.84621       78.84833       -4.08047
O         76.76638       79.00250       -2.15344
H         80.02941       79.64386       -4.43047
H         79.24597       82.49700       -3.74539
H         77.19335       81.60508       -2.83021
H         78.64205       80.96186       -1.98845
N         78.65938       81.11623       -6.55975
C         77.98978       81.40396       -7.82814
C         76.54207       80.93212       -7.86046
O         75.83257       81.29954       -8.78679
C         78.76417       80.78071       -8.99702
H         79.50059       80.52141       -6.57194
H         77.99515       82.50841       -7.96278
H         78.29170       81.04320       -9.96751
H         79.80758       81.16299       -9.00570
H         78.79186       79.67368       -8.89795
N         76.04410       80.09341       -6.90916
C         74.67595       79.60694       -6.88715
C         74.01103       79.87146       -5.49320
O         74.79140       79.57142       -4.36544
C         74.60036       78.16498       -7.49680
C         75.89054       77.35324       -7.57019
O         76.50399       76.89379       -6.46866
O         76.37459       77.09079       -8.66014
H         76.67499       79.71448       -6.19226
H         74.03184       80.21241       -7.56411
H         74.32589       78.31345       -8.56630
H         73.76089       77.58527       -7.06147
N         72.64432       79.32861       -5.41672
C         72.07509       79.21493       -4.06026
C         71.92756       77.75190       -3.74183
O         72.92630       77.05051       -3.73099
H         72.02940       79.93416       -6.00808
H         71.07787       79.70662       -4.03159
H         72.69260       79.71724       -3.28438
N         70.70425       77.20159       -3.50075
C         70.52564       75.76091       -3.34075
C         70.87288       75.08589       -4.65526
O         70.21818       75.35405       -5.65384
C         69.07964       75.43109       -2.93050
C         68.77949       75.98443       -1.55874
N         67.83076       76.93213       -1.38110
O         69.40768       75.57160       -0.59473
H         69.87912       77.81986       -3.46631
H         71.20316       75.39565       -2.53556
H         68.93319       74.32965       -2.89843
H         68.38009       75.84954       -3.68786
H         67.29642       77.30378       -2.17930
H         67.63875       77.30532       -0.43942
N         71.95626       74.26438       -4.73698
C         72.46287       73.72383       -5.98987
C         73.74556       74.44182       -6.35310
O         74.13252       75.34295       -5.62859
H         72.51571       74.09394       -3.88821
H         71.74476       73.88809       -6.82133
H         72.62736       72.63123       -5.87769
N         74.47805       74.15241       -7.46158
C         74.24113       73.01356       -8.33396
C         74.86960       71.76675       -7.72078
O         74.37343       70.67424       -7.95210
C         74.77299       73.29229       -9.76341
C         74.05574       74.49505      -10.41190
O         76.17253       73.46615       -9.76439
H         75.33450       74.70361       -7.61147
H         73.14590       72.84695       -8.42880
H         74.54952       72.41055      -10.40122
H         76.38158       74.41980       -9.58337
H         72.96241       74.30732      -10.46679
H         74.22182       75.42705       -9.82906
H         74.43690       74.65588      -11.44260
N         75.95070       71.87811       -6.89368
C         76.58054       70.78850       -6.15673
C         76.50099       71.13447       -4.67048
O         76.95066       72.21499       -4.31716
C         78.05501       70.63320       -6.63030
C         78.13906       70.14895       -8.10570
C         78.87463       69.70843       -5.70868
C         77.59101       68.73458       -8.36235
H         76.36572       72.81055       -6.75004
H         76.08686       69.82866       -6.34410
H         78.54113       71.63375       -6.57870
H         79.20542       70.15667       -8.41866
H         77.59507       70.86154       -8.76193
H         78.92344       70.12457       -4.68050
H         78.43345       68.69410       -5.64577
H         79.91895       69.63011       -6.07796
H         78.14183       67.97529       -7.77018
H         76.50954       68.65821       -8.13387
H         77.72013       68.47817       -9.43401
N         76.01008       70.29665       -3.70605
C         75.52586       68.93352       -3.93471
C         75.43891       68.12700       -2.63765
O         75.58506       68.67637       -1.55487
C         74.13121       68.93400       -4.63053
C         73.02493       69.58141       -3.83134
O         71.89359       69.60312       -4.28880
O         73.25604       70.14043       -2.62747
H         76.07416       70.64338       -2.73706
H         76.27658       68.40575       -4.55989
H         73.83355       67.88520       -4.84244
H         74.16005       69.45688       -5.60068
N         75.16650       66.79132       -2.69627
C         74.87368       65.97677       -1.52326
C         75.83891       64.80075       -1.41183
O         76.03710       64.12904       -2.41427
C         73.43802       65.44653       -1.67869
C         72.95094       64.85312       -0.38736
C         73.07727       63.48028       -0.12553
C         72.39162       65.69641        0.58682
C         72.64770       62.96094        1.09981
C         71.95794       65.17316        1.80516
C         72.08715       63.80632        2.06301
H         75.08942       66.34316       -3.62211
H         74.90061       66.59987       -0.60635
H         73.37484       64.71557       -2.51585
H         72.75668       66.28434       -1.94802
H         73.51870       62.81910       -0.86099
H         72.29496       66.75959        0.40033
H         72.75262       61.90399        1.30477
H         71.52653       65.82993        2.54920
H         71.75521       63.40416        3.01062
N         76.42714       64.42350       -0.22960
C         76.21732       65.04552        1.06983
C         77.00213       66.33507        1.20902
O         76.56804       67.20795        1.94390
C         76.69499       63.96398        2.04655
C         77.84052       63.32188        1.29572
C         77.27684       63.24931       -0.12304
H         75.14640       65.22796        1.29964
H         76.92104       64.31748        3.07533
H         75.89518       63.19009        2.11495
H         78.69044       64.03755        1.31647
H         78.20057       62.35126        1.69761
H         78.11382       63.24897       -0.85509
H         76.64110       62.34860       -0.26734
N         78.13742       66.54132        0.48773
C         78.90376       67.77775        0.52415
C         79.67298       67.85894        1.83888
O         80.51087       66.99716        2.06597
C         79.89025       67.79137       -0.66875
C         79.14782       67.73619       -2.02233
C         80.10297       67.52098       -3.15818
O         79.98738       66.42179       -3.92977
O         80.98612       68.33026       -3.38861
H         78.45269       65.79673       -0.14811
H         78.21325       68.63612        0.38592
H         80.55803       66.90429       -0.58374
H         80.52113       68.70692       -0.63917
H         78.57215       68.67366       -2.17756
H         78.42633       66.89334       -2.04444
N         79.47713       68.83378        2.77294
C         78.49347       69.88739        2.66055
H         77.47445       69.45487        2.61164
H         78.54038       70.53917        3.55956
H         78.68891       70.50804        1.76269
H         80.05603       68.81628        3.62774
Ca        75.50835       77.49099       -4.61768
O         77.82133       75.21735       -4.60264
H         77.73368       74.67770       -5.42834
H         77.95873       74.55251       -3.88352
O         74.94034       74.21374       -2.73737
H         74.71491       73.24955       -2.73727
H         74.98374       74.45665       -1.77895
O         77.62920       75.76652       -1.46814
H         77.81923       76.67634       -1.12834
H         78.48215       75.27659       -1.35441
O         74.44821       77.13335       -1.09941
H         73.76128       76.51661       -0.74110
H         75.06106       77.29261       -0.33833

Ca 1.0



