%chk=apoCaM-CA-Ng.loop1.water3.frame1386.chk
%nprocshared=20
%mem=10GB
%nosave
#b3lyp/svp scf=(tight,noincore,xqc) Test 
#IOP(5/87=12) Density=Current Pop=(MK,readradii) iop(6/33=2) iop(6/42=6)

apoCaM-CA-Ng.loop1.water3.frame1386 

   0  1 
C         29.27794       78.92428       53.61825
C         28.46399       77.67132       53.73915
O         28.95479       76.61750       53.37134
H         30.26340       78.71133       53.15026
H         28.73701       79.66350       52.99182
H         29.44861       79.35160       54.62835
N         27.21831       77.72306       54.29250
C         26.33273       76.57399       54.49598
C         25.68239       76.11244       53.18952
O         24.48534       76.28906       53.00225
C         25.24786       76.92883       55.53940
C         25.85582       77.30486       56.86335
O         25.64294       78.40532       57.34537
O         26.63697       76.43064       57.52540
H         26.90748       78.64065       54.64810
H         26.90197       75.72448       54.93793
H         24.59176       76.04640       55.70303
H         24.62035       77.76649       55.16285
N         26.41360       75.43493       52.26810
C         25.87608       74.85804       51.04127
C         24.74972       73.87796       51.33704
O         23.70710       74.02865       50.71625
C         26.99695       74.18448       50.21359
C         28.02548       75.23628       49.75593
C         29.22907       74.62221       49.03937
C         30.24569       75.72616       48.70513
N         31.45583       75.17336       48.10249
H         27.39707       75.25257       52.48088
H         25.46116       75.67071       50.40167
H         26.56259       73.70224       49.30922
H         27.49366       73.39676       50.81872
H         28.41816       75.78307       50.63577
H         27.52540       75.97237       49.08789
H         28.90391       74.10287       48.11132
H         29.71012       73.88268       49.71622
H         30.52788       76.26162       49.64011
H         29.78432       76.46235       48.00940
H         32.12442       75.95446       47.91064
H         31.90784       74.50066       48.76392
H         31.22460       74.69128       47.20448
N         24.80166       72.87925       52.26972
C         25.89045       72.59201       53.20370
C         25.43360       72.92641       54.62303
O         24.32524       73.42238       54.78207
C         26.39206       71.15548       52.99291
C         25.31339       70.12390       53.08653
O         24.63850       69.93237       54.23468
O         25.04394       69.45536       52.10330
H         23.94844       72.30595       52.37675
H         26.77405       73.21742       53.02552
H         27.20122       70.91951       53.70828
H         26.83402       71.10553       51.97214
N         26.25079       72.74315       55.70081
C         25.91542       73.22545       57.03779
C         25.63116       72.11414       58.01172
O         25.64516       70.95865       57.62822
H         27.16645       72.28881       55.57072
H         25.01778       73.87716       57.02049
H         26.76632       73.83339       57.41172
N         25.28953       72.40983       59.29821
C         24.99079       71.39685       60.31503
C         25.70759       71.72593       61.61877
O         26.25043       72.81819       61.72175
C         23.46005       71.33645       60.49956
C         22.85346       70.84146       59.22312
O         23.23634       69.63819       58.75595
O         22.09042       71.54116       58.57783
H         25.18284       73.40545       59.55099
H         25.36088       70.40631       59.97581
H         23.06888       72.34440       60.76357
H         23.15968       70.63565       61.29455
N         25.79896       70.87044       62.68119
C         25.32329       69.49616       62.76286
C         26.03622       68.57450       61.80079
O         27.25259       68.64352       61.69766
H         26.28961       71.21918       63.52013
H         24.22319       69.42118       62.68139
H         25.57150       69.12249       63.78008
N         25.34211       67.60602       61.13976
C         25.98555       66.61285       60.28335
C         26.36588       67.23442       58.95311
O         25.54135       67.91522       58.36403
C         25.07684       65.38085       60.05408
C         24.72975       64.69103       61.38616
O         25.76539       64.46793       59.23564
H         24.32890       67.52725       61.31661
H         26.88906       66.20873       60.79500
H         24.14079       65.70298       59.54701
H         25.13386       63.73370       59.02104
H         25.65574       64.37232       61.91204
H         24.15363       65.36351       62.05314
H         24.10764       63.79076       61.19683
N         27.59038       66.98227       58.40407
C         28.08685       67.49361       57.12595
C         27.19302       67.09746       55.95715
O         26.08205       67.59627       55.84557
C         28.28421       69.03209       57.15408
C         29.11563       69.52613       58.36185
C         28.85863       69.56295       55.82654
C         30.56309       69.03446       58.38255
H         28.22913       66.36100       58.92336
H         29.08654       67.03703       56.96345
H         27.29146       69.47232       57.26669
H         28.61930       69.20691       59.30277
H         29.12188       70.63845       58.35895
H         29.85334       69.12532       55.61055
H         28.18940       69.30564       54.98166
H         28.94579       70.66916       55.86052
H         31.07056       69.43843       59.28260
H         30.60632       67.92772       58.42848
H         31.11623       69.39157       57.49031
N         27.65625       66.24329       55.00643
C         26.92108       65.92858       53.78819
C         26.46772       64.48270       53.74897
O         25.89476       64.10960       52.73709
C         27.76712       66.30826       52.54267
C         29.07179       65.51444       52.41167
O         28.08131       67.67580       52.58177
H         28.57924       65.80849       55.14499
H         25.98589       66.52956       53.72454
H         27.17379       66.09106       51.62174
H         27.28862       68.16224       52.23860
H         29.75658       65.71741       53.25964
H         28.86657       64.42498       52.35883
H         29.59434       65.81655       51.47928
N         26.64718       63.62076       54.79916
C         26.15570       62.24111       54.78706
C         24.63496       62.25673       54.67747
O         23.95606       62.46364       55.67356
C         26.63534       61.45736       56.03836
C         28.16294       61.33846       56.08580
O         26.20249       62.09569       57.21488
H         27.13318       63.95823       55.64097
H         26.58007       61.72944       53.89410
H         26.23404       60.41676       55.98074
H         25.50958       61.52204       57.63419
H         28.53773       60.81429       55.18198
H         28.64737       62.33575       56.14569
H         28.46592       60.75888       56.98335
N         24.05769       62.21443       53.44071
C         22.65597       62.49617       53.13592
C         22.24586       63.89268       53.58895
O         22.90848       64.47731       54.43222
C         21.69763       61.41605       53.66922
C         22.09879       60.02707       53.15185
C         21.05788       58.96269       53.50980
C         21.50567       57.58435       53.00326
N         20.48128       56.57241       53.25465
H         24.66812       62.05246       52.62574
H         22.57405       62.49201       52.02514
H         20.67231       61.65717       53.31086
H         21.68451       61.40886       54.78090
H         23.08515       59.74836       53.58408
H         22.19129       60.06149       52.04386
H         20.09127       59.23464       53.03113
H         20.91356       58.92216       54.61156
H         22.44963       57.29315       53.51649
H         21.70310       57.63231       51.90895
H         19.60761       56.81419       52.73245
H         20.82829       55.64531       52.91771
H         20.27659       56.50903       54.27801
N         21.17004       64.51753       53.03147
C         20.73230       65.84176       53.46445
C         21.86422       66.86163       53.41238
O         22.14415       67.43013       54.45548
C         19.49460       66.32873       52.67819
C         18.91186       67.61627       53.28734
C         17.68574       68.05981       52.54592
O         16.50124       68.12928       53.18284
O         17.75713       68.37052       51.36754
H         20.64993       64.03558       52.28224
H         20.40918       65.74206       54.52631
H         18.71291       65.54009       52.72653
H         19.74062       66.50332       51.61142
H         19.65882       68.43884       53.25917
H         18.64300       67.42333       54.34903
N         22.58865       67.17388       52.30061
C         22.46533       66.58302       50.98623
H         21.70620       65.78754       50.92860
H         22.21216       67.37746       50.25342
H         23.44197       66.13747       50.70134
H         23.31621       67.88923       52.40359
Ca        22.94064       69.01021       56.62426
O         23.36414       66.08681       57.00324
H         23.22772       65.12745       57.20335
H         23.96290       66.09337       56.21549
O         20.16525       68.24865       56.96919
H         20.20091       68.75940       56.12142
H         20.19556       67.29995       56.68797
O         21.90134       71.56089       55.38870
H         21.21614       71.18804       55.99859
H         22.70825       71.66091       55.95398

Ca 1.0



