%chk=apoCaM-CA-Ng.loop2.water3.frame684.chk
%nprocshared=20
%mem=10GB
%nosave
#b3lyp/svp scf=(tight,noincore,xqc) Test 
#IOP(5/87=12) Density=Current Pop=(MK,readradii) iop(6/33=2) iop(6/42=6)

apoCaM-CA-Ng.loop2.water3.frame684 

   -2  1 
C         72.64291       58.42784       61.50278
C         71.31701       59.13223       61.47907
O         71.08715       59.92287       60.57559
H         73.46082       59.17616       61.55818
H         72.72723       57.74831       62.37721
H         72.76173       57.82597       60.57742
N         70.38592       58.88172       62.44161
C         69.07541       59.51338       62.48552
C         68.02733       58.43997       62.26778
O         67.27113       58.10988       63.17112
C         68.91852       60.27456       63.81735
C         67.61083       61.01821       63.88405
O         67.34650       61.87533       63.05526
O         66.72769       60.74607       64.86327
H         70.60655       58.19362       63.17868
H         68.96018       60.26230       61.67014
H         69.73994       61.01826       63.90804
H         68.99593       59.56626       64.67071
N         67.92756       57.87193       61.03529
C         66.96669       56.83248       60.68622
C         67.68684       55.67503       60.01131
O         68.84894       55.83680       59.66268
C         65.96263       57.45305       59.70709
H         68.54333       58.23076       60.28799
H         66.43410       56.47671       61.59265
H         65.18262       56.74757       59.37728
H         65.45570       58.31368       60.19099
H         66.49222       57.81954       58.80051
N         67.09816       54.47780       59.72616
C         65.79036       54.00306       60.19701
C         65.80375       53.74768       61.70340
O         66.84022       53.91633       62.33310
C         65.45037       52.66711       59.47673
C         66.45879       51.58256       59.75802
O         67.51059       51.83942       60.55739
O         66.34547       50.48481       59.23723
H         67.66706       53.83500       59.15203
H         64.99378       54.71949       59.93746
H         65.42793       52.84735       58.38041
H         64.44550       52.30453       59.77744
N         64.69931       53.24793       62.32849
C         64.72559       52.73609       63.69010
C         63.81970       53.50127       64.61899
O         63.22164       54.48111       64.19560
H         63.81885       53.14849       61.80048
H         65.74878       52.76257       64.09930
H         64.40280       51.67411       63.65520
N         63.63026       53.12055       65.91738
C         64.23871       51.93960       66.54600
C         65.74994       52.08955       66.73168
O         66.29437       53.14330       66.43239
C         63.57368       51.68797       67.92575
C         62.09268       51.38370       67.84642
N         61.39695       51.14231       68.98118
O         61.51689       51.34124       66.76836
H         62.96518       53.68195       66.47384
H         64.04539       51.04777       65.91096
H         63.72631       52.58015       68.57250
H         64.04306       50.81659       68.42524
H         61.86429       51.16792       69.89937
H         60.38983       50.92564       68.94271
N         66.48264       51.06704       67.27439
C         67.90754       51.16496       67.56762
C         68.74216       49.97578       67.10908
O         69.92616       49.98114       67.41683
H         65.99539       50.21019       67.57261
H         68.01119       51.20563       68.67297
H         68.34567       52.09914       67.15537
N         68.22572       48.90600       66.42968
C         69.02587       47.71321       66.10568
C         70.18503       48.02594       65.15617
O         70.31125       49.15898       64.71364
C         68.13200       46.57318       65.55214
C         67.11307       46.09328       66.59635
O         67.46834       47.00443       64.39441
H         67.22654       48.91261       66.18344
H         69.48093       47.33896       67.05044
H         68.78031       45.70018       65.31267
H         67.19726       46.18881       63.89710
H         67.64092       45.73221       67.50530
H         66.41046       46.89987       66.88908
H         66.52099       45.24940       66.18346
N         71.10736       47.05897       64.84711
C         72.32979       47.31999       64.08801
C         72.36200       46.51182       62.79490
O         72.34069       45.28999       62.83255
C         73.58115       46.99474       64.96067
C         74.89529       47.24331       64.16505
C         73.55583       47.83321       66.25438
C         76.15991       46.80087       64.90169
H         70.98024       46.10726       65.22138
H         72.38865       48.39691       63.83049
H         73.53814       45.91778       65.23893
H         74.98165       48.31797       63.89538
H         74.87670       46.65259       63.22571
H         72.62819       47.64053       66.83220
H         74.39868       47.56931       66.92276
H         73.60806       48.91761       66.01612
H         76.32246       47.38499       65.82816
H         76.09801       45.71930       65.14787
H         77.04122       46.96136       64.24539
N         72.48589       47.17091       61.60964
C         72.68063       46.55705       60.29900
C         73.98309       47.03486       59.64935
O         74.26364       46.59424       58.54291
C         71.45477       46.79107       59.38876
C         70.91839       48.18374       59.43321
O         70.83561       48.87095       58.42811
O         70.41752       48.61766       60.60082
H         72.48107       48.19678       61.63633
H         72.78133       45.45338       60.38968
H         70.62447       46.14812       59.75263
H         71.68164       46.47598       58.34692
N         74.87893       47.83311       60.30905
C         76.23995       48.05776       59.83948
C         76.64526       49.52300       60.00800
O         77.56631       49.79404       60.76644
C         77.11493       47.04653       60.62128
C         78.59739       47.06118       60.33808
C         79.50180       47.10416       61.41487
C         79.09793       46.98187       59.02666
C         80.87854       47.06265       61.18547
C         80.47882       46.95700       58.80140
C         81.36753       46.99214       59.87970
H         74.68035       48.13751       61.27008
H         76.34803       47.79680       58.76624
H         76.74663       46.03173       60.35277
H         76.94093       47.17826       61.71169
H         79.14263       47.14566       62.43608
H         78.42738       46.94015       58.17887
H         81.56513       47.07820       62.02219
H         80.86111       46.90167       57.79058
H         82.43498       46.95949       59.70485
N         76.03696       50.53586       59.30548
C         76.46931       51.93259       59.33587
C         76.43751       52.62995       60.68583
O         76.89545       53.76275       60.75451
C         75.49380       52.63728       58.38719
C         75.20672       51.54984       57.37919
C         75.03055       50.33053       58.28328
H         77.50856       51.95268       58.93617
H         74.53396       52.83042       58.92196
H         75.86648       53.59794       57.97052
H         74.35356       51.74840       56.69689
H         76.12970       51.41130       56.76941
H         74.02987       50.31690       58.76807
H         75.18737       49.41934       57.67000
N         75.90219       52.04503       61.79457
C         75.93611       52.67676       63.10499
C         77.38626       52.77243       63.52793
O         77.87108       53.86997       63.76680
C         75.11917       51.91431       64.18799
C         73.57992       52.02419       64.05565
C         72.90932       51.13062       63.04866
O         71.70078       51.19824       62.90181
O         73.58867       50.19624       62.37239
H         75.50021       51.11492       61.70497
H         75.50112       53.70062       63.04103
H         75.34942       52.43715       65.14362
H         75.44166       50.85774       64.30868
H         73.31255       53.08410       63.85402
H         73.13237       51.74586       65.03468
N         78.15263       51.64922       63.59414
C         79.55880       51.69282       63.92341
H         80.09774       52.32645       63.18633
H         79.69880       52.10527       64.94400
H         79.98590       50.66808       63.88441
H         77.73161       50.73360       63.37464
Ca        69.15868       50.40621       60.78467
O         67.53076       48.17121       61.84306
H         66.81427       48.81557       61.61658
H         67.70121       47.67728       61.00234
O         70.03037       53.42475       62.44302
H         69.75827       53.77998       63.32617
H         69.45512       53.89818       61.79241
O         68.09620       51.09898       63.89841
H         67.24606       50.69903       64.21061
H         68.06524       52.03384       64.22222

Ca 1.0



