%chk=apoCaM-CA-Ng.loop2.water3.frame813.chk
%nprocshared=20
%mem=10GB
%nosave
#b3lyp/svp scf=(tight,noincore,xqc) Test 
#IOP(5/87=12) Density=Current Pop=(MK,readradii) iop(6/33=2) iop(6/42=6)

apoCaM-CA-Ng.loop2.water3.frame813 

   -2  1 
C         88.75338      -19.84572       75.82123
C         89.82302      -19.71874       76.86706
O         90.26375      -20.72926       77.39646
H         87.84315      -19.29926       76.14508
H         89.11522      -19.41390       74.86389
H         88.48901      -20.91150       75.65021
N         90.30256      -18.48749       77.20003
C         91.35883      -18.25966       78.18148
C         92.61947      -17.69300       77.52066
O         93.58882      -17.44748       78.22195
C         90.81543      -17.31241       79.27058
C         91.79620      -17.09404       80.39033
O         92.21156      -15.97209       80.63294
O         92.22531      -18.13666       81.12733
H         89.90672      -17.66443       76.71715
H         91.64825      -19.21904       78.66586
H         89.89283      -17.75012       79.70948
H         90.54963      -16.33767       78.80421
N         92.70011      -17.51784       76.16879
C         93.89103      -17.03992       75.47641
C         93.49008      -15.93292       74.51254
O         92.56920      -16.16774       73.74307
C         94.48796      -18.21322       74.70305
H         91.90553      -17.79113       75.57511
H         94.67038      -16.71213       76.18968
H         95.40347      -17.89478       74.16406
H         94.76442      -19.01666       75.42033
H         93.75717      -18.62433       73.97508
N         94.08446      -14.70480       74.44279
C         95.27947      -14.26968       75.16291
C         95.29458      -12.75185       75.33513
O         94.39972      -12.07315       74.85080
C         96.55102      -14.77671       74.43523
C         96.49678      -14.52487       72.95007
O         96.57105      -15.46462       72.17466
O         96.29436      -13.28859       72.46353
H         93.71307      -14.06638       73.72091
H         95.26277      -14.64651       76.20507
H         96.63849      -15.87316       74.58661
H         97.46188      -14.31298       74.86815
N         96.25674      -12.16411       76.10216
C         96.28852      -10.74270       76.41494
C         97.68405      -10.17933       76.26086
O         98.27921       -9.86536       77.28238
H         96.95397      -12.76735       76.56653
H         96.01434      -10.65341       77.48942
H         95.54655      -10.15054       75.84232
N         98.32762      -10.03142       75.06794
C         97.75658      -10.28856       73.75096
C         96.79656       -9.15912       73.37484
O         97.23584       -8.02121       73.27718
C         98.92643      -10.38332       72.73849
C         98.56142      -10.76758       71.33303
N         99.53440      -10.86784       70.39940
O         97.40540      -10.99724       71.02746
H         99.31070       -9.71568       75.11368
H         97.25235      -11.27584       73.76624
H         99.63671      -11.15748       73.10368
H         99.46198       -9.40940       72.70585
H        100.51776      -10.68410       70.64418
H         99.31159      -11.12521       69.42977
N         95.46553       -9.39181       73.18400
C         94.50052       -8.33359       72.90118
C         94.51704       -7.82762       71.46642
O         93.78124       -6.89482       71.17863
H         95.10722      -10.34292       73.32397
H         94.66160       -7.49714       73.61625
H         93.47499       -8.72394       73.07914
N         95.28103       -8.41688       70.50519
C         95.31631       -8.01503       69.10098
C         94.82605       -9.16092       68.22799
O         95.27552      -10.27856       68.41487
C         96.75077       -7.60871       68.69345
C         97.18134       -6.31765       69.38889
O         97.67393       -8.61963       69.00519
H         95.86197       -9.21733       70.76810
H         94.66565       -7.13206       68.91268
H         96.77351       -7.39195       67.59853
H         97.63489       -9.28532       68.27283
H         97.18786       -6.44365       70.49172
H         98.20197       -6.03636       69.05310
H         96.48774       -5.49119       69.12127
N         93.89108       -8.93461       67.25840
C         93.31506       -9.94988       66.36490
C         94.38235      -10.51013       65.40199
O         94.46839      -10.05356       64.27001
C         92.08173       -9.32955       65.60382
C         91.40633      -10.28879       64.58322
C         91.01120       -8.80460       66.59167
C         90.83262      -11.57575       65.17952
H         93.56156       -7.96369       67.15918
H         92.90597      -10.77978       66.97511
H         92.44137       -8.45382       65.01771
H         92.12925      -10.56389       63.79350
H         90.58014       -9.74430       64.07464
H         90.15968       -8.35906       66.03391
H         90.62830       -9.61709       67.24200
H         91.40049       -8.00856       67.25552
H         91.63800      -12.17698       65.64003
H         90.04679      -11.36147       65.93148
H         90.36771      -12.18051       64.37286
N         95.24491      -11.49833       65.79550
C         96.30886      -12.03936       64.94559
C         95.78761      -12.89456       63.79616
O         96.56676      -13.17760       62.89633
C         97.29430      -12.88532       65.77229
C         97.89802      -12.08943       66.89026
O         98.57822      -11.10406       66.65257
O         97.68481      -12.46364       68.16339
H         95.17681      -11.85792       66.74958
H         96.86924      -11.17385       64.52260
H         98.11924      -13.25936       65.12806
H         96.75317      -13.76000       66.19519
N         94.49182      -13.32011       63.73817
C         93.90657      -13.93892       62.55469
C         93.15398      -15.24272       62.87664
O         91.93581      -15.24456       62.76760
C         92.96110      -12.86185       61.97296
C         92.25337      -13.26323       60.70595
C         90.85471      -13.40095       60.70895
C         92.96574      -13.48576       59.51644
C         90.17902      -13.76463       59.54473
C         92.28249      -13.83970       58.34776
C         90.89108      -13.98127       58.36328
H         93.85067      -13.08810       64.51056
H         94.67179      -14.15892       61.77862
H         93.53531      -11.93066       61.76967
H         92.21209      -12.62376       62.75579
H         90.28754      -13.23475       61.61717
H         94.04285      -13.37478       59.49075
H         89.10280      -13.87523       59.56158
H         92.83025      -14.00263       57.42901
H         90.36283      -14.25687       57.46055
N         93.76955      -16.42148       63.21294
C         93.02954      -17.67322       63.35011
C         92.21267      -17.75533       64.63003
O         91.42874      -18.68605       64.75754
C         94.11688      -18.74511       63.26422
C         95.29152      -18.04574       63.92074
C         95.19540      -16.63081       63.33511
H         92.33283      -17.81033       62.49226
H         93.83872      -19.74117       63.67326
H         94.38908      -18.87588       62.19183
H         95.07026      -17.99336       65.01121
H         96.27675      -18.53988       63.78329
H         95.68756      -15.91324       64.02440
H         95.64565      -16.57139       62.32000
N         92.33364      -16.82654       65.61853
C         91.51262      -16.84249       66.82697
C         90.04311      -16.53066       66.55746
O         89.25300      -16.65542       67.48347
C         92.06092      -15.84404       67.86855
C         92.04305      -14.38021       67.38784
C         92.60652      -13.47765       68.43789
O         91.96231      -13.30983       69.60601
O         93.65382      -12.89064       68.24049
H         93.06976      -16.11778       65.52249
H         91.58450      -17.86042       67.27297
H         93.10959      -16.13394       68.10059
H         91.46472      -15.93135       68.80411
H         91.01064      -14.04799       67.15053
H         92.65591      -14.27075       66.47155
N         89.60741      -16.07838       65.34539
C         88.22956      -15.72317       65.07279
H         87.56630      -15.88010       65.94899
H         88.18092      -14.65081       64.78750
H         87.85132      -16.33677       64.22939
H         90.27247      -15.94317       64.57470
Ca        95.78887      -13.09897       70.26798
O         93.29915      -11.41781       71.57771
H         92.35860      -11.59726       71.82843
H         93.82039      -12.08147       72.09445
O         96.49225      -15.51956       68.57858
H         97.39199      -15.12505       68.45656
H         96.55498      -16.01301       69.43442
O         93.65834      -15.04785       71.21629
H         94.09529      -15.83349       71.62568
H         93.33057      -15.39222       70.35233

Ca 1.0



