%chk=apoCaM-CA-Ng.loop3.water3.frame811.chk
%nprocshared=20
%mem=10GB
%nosave
#b3lyp/svp scf=(tight,noincore,xqc) Test 
#IOP(5/87=12) Density=Current Pop=(MK,readradii) iop(6/33=2) iop(6/42=6)

apoCaM-CA-Ng.loop3.water3.frame811 

   0  1 
C         72.74090       86.95516       86.06053
C         71.34860       87.21027       86.55361
O         71.13414       87.25601       87.75559
H         73.44527       86.83161       86.91004
H         72.76093       86.04380       85.42923
H         73.07351       87.82577       85.45376
N         70.35035       87.43906       85.65932
C         69.00674       87.85085       86.06057
C         68.26384       86.71528       86.77726
O         68.68680       85.57347       86.65494
C         68.26918       88.35488       84.79005
C         67.11057       89.29383       84.98235
O         66.54936       89.74186       83.99678
O         66.72810       89.72461       86.19354
H         70.59574       87.41281       84.65629
H         69.14205       88.70309       86.73883
H         67.97739       87.48092       84.16815
H         68.98579       88.96032       84.19330
N         67.13515       86.94883       87.51663
C         66.30069       85.88496       88.08133
C         64.95069       85.81687       87.37309
O         64.29743       84.78935       87.49501
C         66.05511       86.05969       89.59704
C         67.29900       85.88337       90.47968
C         66.90084       86.00830       91.96390
C         68.06352       85.68700       92.91218
N         67.64134       85.80126       94.31040
H         66.82827       87.91623       87.65119
H         66.78031       84.89652       87.90691
H         65.32616       85.28083       89.91661
H         65.59456       87.05367       89.78419
H         68.07151       86.64177       90.22763
H         67.71658       84.86860       90.29980
H         66.07834       85.29168       92.18368
H         66.53129       87.03908       92.16033
H         68.91096       86.38166       92.72428
H         68.40982       84.64620       92.72338
H         68.43692       85.53556       94.93476
H         67.35925       86.78587       94.52244
H         66.83799       85.15854       94.50208
N         64.46062       86.85060       86.62473
C         63.22939       86.77496       85.84653
C         63.50526       87.01769       84.35728
O         62.56236       87.00033       83.57877
C         62.16125       87.71292       86.45362
C         62.52352       89.16894       86.47718
O         62.66970       89.78536       85.43744
O         62.62491       89.81809       87.65270
H         64.97006       87.74153       86.58517
H         62.79007       85.75540       85.91398
H         61.98386       87.38321       87.50156
H         61.20394       87.59620       85.90173
N         64.77986       87.17581       83.87919
C         65.12534       87.26849       82.46716
C         64.69014       88.53306       81.74672
O         64.93615       88.59870       80.55087
H         65.57466       87.12459       84.52707
H         64.69805       86.38509       81.94530
H         66.23121       87.20948       82.36788
N         64.03834       89.56053       82.36544
C         63.50836       90.71876       81.64953
C         63.99555       92.03700       82.23543
O         63.88335       92.25284       83.43296
C         61.96786       90.63383       81.67043
C         61.29626       91.73386       80.87471
N         61.28273       93.01504       81.31507
O         60.73495       91.45529       79.82567
H         63.84138       89.49255       83.36883
H         63.79119       90.68143       80.57390
H         61.57044       90.62815       82.70755
H         61.70358       89.65917       81.20107
H         61.70613       93.27523       82.21609
H         60.82004       93.75288       80.76428
N         64.41304       93.02252       81.38970
C         64.66838       94.40031       81.78033
C         65.89469       94.56908       82.63137
O         66.95082       94.08707       82.24651
H         64.44892       92.82077       80.37902
H         63.76807       94.83474       82.26851
H         64.84969       94.98650       80.85364
N         65.85341       95.34037       83.75830
C         67.05143       95.63476       84.54115
C         67.57298       94.38957       85.23331
O         66.96144       93.33785       85.10554
C         66.80164       96.81172       85.51562
C         66.44257       98.07724       84.75641
C         65.21535       98.72544       84.97826
C         67.33673       98.62150       83.81249
C         64.88601       99.88388       84.26316
C         67.00226       99.77319       83.09561
C         65.77759      100.40786       83.31536
O         65.47068      101.51692       82.61199
H         64.96215       95.79241       84.01670
H         67.85069       95.95701       83.84048
H         67.72091       97.02794       86.09931
H         66.00044       96.53323       86.23480
H         64.51132       98.33552       85.70196
H         68.29405       98.15503       83.62108
H         63.93659      100.37188       84.44354
H         67.69706      100.17154       82.36612
H         64.63271      101.98679       82.72810
N         68.76290       94.42731       85.90569
C         69.48124       93.25486       86.40706
C         68.72202       92.54479       87.52712
O         67.56345       92.21270       87.34956
C         69.83923       92.28714       85.23284
C         70.75914       91.11922       85.67825
C         70.47237       93.04524       84.04696
C         72.16234       91.51899       86.14795
H         69.25179       95.33229       85.98235
H         70.44293       93.62206       86.82083
H         68.90232       91.82560       84.85369
H         70.87963       90.41867       84.82356
H         70.26997       90.56868       86.50160
H         70.71708       92.34019       83.22471
H         69.76823       93.79612       83.63232
H         71.39282       93.58217       84.35529
H         72.12483       92.17814       87.03679
H         72.72340       90.60351       86.42970
H         72.72785       92.02366       85.33857
N         69.35483       92.19929       88.68699
C         68.69490       91.43712       89.75062
C         69.04060       91.91497       91.15433
O         68.52187       91.32610       92.09652
C         69.06823       89.95893       89.61171
O         70.45547       89.79639       89.72016
H         70.36917       92.36178       88.74745
H         67.59186       91.50826       89.64340
H         68.72088       89.61181       88.62334
H         68.54573       89.36046       90.39258
H         70.61675       88.81876       89.72677
N         69.91301       92.93473       91.39734
C         70.29463       93.33482       92.75070
C         69.09294       93.86313       93.52752
O         68.06582       94.10143       92.90673
C         71.39058       94.39446       92.65286
H         70.35148       93.42586       90.60619
H         70.69727       92.43517       93.26757
H         72.26765       93.97797       92.11165
H         71.01601       95.28217       92.10092
H         71.72411       94.71997       93.64128
N         69.06815       94.02190       94.88606
C         70.12881       93.69158       95.83671
C         70.11789       94.70424       96.98099
O         69.04664       94.92178       97.53200
C         69.85026       92.30318       96.42000
H         68.15457       94.28611       95.28959
H         71.11643       93.60727       95.35551
H         69.85734       91.54422       95.60863
H         70.64394       92.03336       97.15109
H         68.86437       92.26910       96.93041
N         71.22639       95.32519       97.48063
C         72.59707       95.10412       97.03887
C         72.88594       95.81082       95.72792
O         73.72683       95.33373       94.97764
C         73.56967       95.57404       98.14452
C         75.03240       95.19745       97.86769
C         75.89894       95.54209       99.04545
O         76.82695       96.32457       98.92068
O         75.66475       94.97339      100.24459
H         71.08155       95.92967       98.30634
H         72.75989       94.00793       96.93822
H         73.26335       95.06676       99.08695
H         73.48055       96.67315       98.29749
H         75.39664       95.72991       96.96327
H         75.10987       94.10274       97.69270
N         72.25214       96.97146       95.39527
C         72.51996       97.67158       94.15628
H         73.58983       97.96329       94.10486
H         72.27567       97.02776       93.28804
H         71.89512       98.58781       94.09515
H         71.55870       97.38084       96.03862
Ca        65.05010       91.23005       86.29959
O         65.08026       93.48031       88.41129
H         65.48257       94.16260       87.81670
H         65.79559       93.26232       89.05990
O         65.56222       89.93848       89.06773
H         65.01909       89.20576       88.68472
H         65.72934       89.66167       90.00313
O         62.74696       93.23537       86.10033
H         62.33917       93.40178       85.21392
H         63.34964       94.00766       86.24313

Ca 1.0



