%chk=apoCaM-CA-Ng.loop4.water2.frame250.chk
%nprocshared=20
%mem=10GB
%nosave
#b3lyp/svp scf=(tight,noincore,xqc) Test 
#IOP(5/87=12) Density=Current Pop=(MK,readradii) iop(6/33=2) iop(6/42=6)

apoCaM-CA-Ng.loop4.water2.frame250 

   -3  1 
C         22.63492       37.29471       12.48094
C         22.27290       38.61498       13.08874
O         23.16468       39.34163       13.49848
H         23.73535       37.14021       12.50451
H         22.14763       36.47695       13.05165
H         22.29177       37.26392       11.42602
N         20.96638       38.99978       13.15638
C         20.50774       40.26237       13.72497
C         21.12942       41.45320       13.02487
O         21.69053       42.30989       13.67485
C         20.53978       40.26378       15.28510
C         21.72873       39.67084       16.02567
O         22.96933       40.20598       16.04426
O         21.54134       38.66397       16.69113
H         20.25281       38.37526       12.75010
H         19.42467       40.37062       13.48575
H         19.67769       39.62088       15.57706
H         20.30393       41.27859       15.67201
N         20.97017       41.59167       11.67704
C         21.42250       42.71322       10.85140
C         20.75556       44.01039       11.30645
O         19.76038       44.38628       10.70282
C         22.97374       42.78197       10.69222
C         23.33332       43.86040        9.63492
C         23.52074       41.39980       10.27987
C         24.82907       44.01939        9.36827
H         20.44464       40.85098       11.18662
H         21.02449       42.49695        9.83181
H         23.44674       43.04345       11.66207
H         22.95354       44.84625        9.97868
H         22.83848       43.61715        8.66841
H         23.26722       40.63650       11.04317
H         23.09749       41.08230        9.30330
H         24.62733       41.40656       10.21294
H         25.26640       43.10104        8.92511
H         24.96522       44.83608        8.62975
H         25.37113       44.27912       10.30088
N         21.22323       44.72880       12.37133
C         20.51054       45.85441       12.96273
C         21.22844       47.19293       12.72388
O         20.59911       48.03347       12.09574
C         20.19686       45.51795       14.44423
C         19.39061       46.55461       15.18362
O         19.02834       47.58781       14.64403
O         19.05613       46.32958       16.46863
H         22.09473       44.43465       12.82039
H         19.51489       45.95553       12.47408
H         21.11794       45.31984       15.01658
H         19.61663       44.56954       14.46471
N         22.48415       47.53711       13.14953
C         23.39331       46.67403       13.88666
C         24.69705       47.34619       14.28182
O         24.88543       48.49701       13.91631
H         22.78978       48.49433       12.91726
H         23.64550       45.83147       13.23422
H         22.89361       46.38642       14.80931
N         25.67782       46.75430       15.03907
C         25.72611       45.42826       15.66889
C         25.77889       44.23685       14.67446
O         24.54914       43.94348       14.09872
C         24.63853       45.25255       16.75853
C         24.85323       44.01814       17.59410
O         25.99198       43.86516       18.29623
O         23.98400       43.16375       17.66570
H         26.50564       47.34222       15.23035
H         26.68103       45.38725       16.23570
H         23.62884       45.18858       16.32287
H         24.67039       46.12747       17.44274
N         26.84692       44.18287       13.65343
C         28.00646       45.08356       13.69134
C         27.91468       46.19453       12.66862
O         26.94872       46.27787       11.92201
H         26.53294       43.91625       12.69139
H         28.90783       44.48552       13.44040
H         28.18106       45.49812       14.70004
N         28.92696       47.10040       12.59096
C         28.95103       48.20124       11.63146
C         29.24997       47.74254       10.20647
O         29.22708       48.59414        9.32723
C         30.03860       49.22706       12.03807
C         29.87851       49.87872       13.42940
C         28.70414       50.82384       13.53840
N         27.43022       50.37151       13.56275
O         28.91409       52.02358       13.63943
H         29.69556       47.01582       13.27414
H         27.96493       48.70340       11.61836
H         30.09002       50.04726       11.28816
H         31.01908       48.69931       12.02463
H         30.80324       50.47535       13.59119
H         29.83406       49.12326       14.24171
H         27.22620       49.36533       13.53522
H         26.64264       51.03201       13.64337
N         29.59361       46.45531        9.89732
C         30.01823       46.05076        8.55494
C         31.48269       45.64325        8.53175
O         31.98363       45.39230        7.44395
C         29.13008       44.91481        7.98006
C         27.67857       45.37806        7.84535
C         29.20591       43.62194        8.81000
H         29.61806       45.74764       10.64339
H         29.94487       46.91322        7.85596
H         29.49303       44.67622        6.95464
H         27.25400       45.62472        8.84082
H         27.62195       46.27854        7.19755
H         27.06985       44.57710        7.37429
H         28.82515       43.78631        9.83693
H         28.59509       42.82572        8.33380
H         30.25183       43.25301        8.87013
N         32.23491       45.55607        9.67062
C         33.64123       45.19379        9.65906
C         33.88683       43.85862       10.34276
O         34.42356       42.99030        9.66602
C         34.54406       46.34650       10.17353
C         34.28518       46.96022       11.53424
N         35.10507       47.93937       11.98031
O         33.34720       46.61243       12.23047
H         31.80803       45.74538       10.58370
H         33.98786       45.04711        8.61022
H         34.46433       47.18130        9.44343
H         35.59460       45.98209       10.14880
H         35.90385       48.25634       11.41130
H         34.94695       48.37702       12.90006
N         33.58194       43.60575       11.65453
C         34.02770       42.37990       12.31563
C         32.90088       41.58173       12.94828
O         31.79496       42.07896       13.10751
C         35.06569       42.74141       13.40312
C         36.14252       43.66973       12.88249
C         36.95588       43.30017       11.79816
C         36.32554       44.93284       13.47420
C         37.92117       44.18472       11.30559
C         37.29760       45.80996       12.98694
C         38.09353       45.44407       11.89853
O         39.01482       46.30993       11.43044
H         33.10757       44.31363       12.22520
H         34.51966       41.71190       11.57783
H         35.53260       41.81683       13.80458
H         34.53432       43.24315       14.24321
H         36.83345       42.33539       11.32386
H         35.71288       45.24544       14.31089
H         38.53109       43.89214       10.46064
H         37.42466       46.78027       13.45101
H         39.57862       46.10187       10.67200
N         33.16446       40.30573       13.35797
C         32.27600       39.42660       14.11496
C         30.96956       39.04827       13.42688
O         30.21687       38.30029       14.03758
C         31.99541       39.98744       15.52381
C         33.28923       40.34667       16.27562
C         33.04907       40.72275       17.71341
O         34.09336       41.08532       18.48143
O         31.92950       40.69015       18.20133
H         34.10496       39.92884       13.16107
H         32.82656       38.46980       14.27125
H         31.46400       39.19440       16.09795
H         31.33899       40.88173       15.46887
H         33.77731       41.20370       15.76533
H         33.98596       39.48096       16.26205
N         30.63991       39.44890       12.16443
C         29.41430       39.00806       11.50728
C         29.75811       37.89055       10.55246
O         29.22026       36.80212       10.70629
C         28.69528       40.16493       10.77852
C         28.26493       41.35018       11.66198
C         27.33490       40.96251       12.78017
O         26.18113       41.36006       12.78481
O         27.77731       40.21283       13.80631
H         31.30967       39.99930       11.61067
H         28.69804       38.57933       12.24044
H         27.78237       39.75234       10.29317
H         29.35201       40.56426        9.97529
H         27.73574       42.06835       10.99780
H         29.15127       41.86880       12.08452
N         30.67896       38.07326        9.56637
C         31.08732       37.02111        8.65931
H         32.17406       36.83342        8.78699
H         30.54791       36.06790        8.84364
H         30.89246       37.34001        7.61560
H         31.13520       38.99151        9.46286
Ca        23.85201       41.99105       15.00777
O         26.69920       41.45906       16.42306
H         27.66119       41.63603       16.27053
H         26.65078       41.13523       17.35749
O         25.45989       38.58376       15.52245
H         24.74272       37.90162       15.49282
H         25.46295       38.89741       16.46159

Ca 1.0



