%chk=apoCaM-CA-Ng.loop1.water7.frame567.chk
%nprocshared=20
%mem=10GB
%nosave
#b3lyp/svp scf=(tight,noincore,xqc) Test 
#IOP(5/87=12) Density=Current Pop=(MK,readradii) iop(6/33=2) iop(6/42=6)

apoCaM-CA-Ng.loop1.water7.frame567 

   0  1 
C         86.09196       23.37515       67.84081
C         85.27786       23.26504       66.58629
O         84.95137       24.29376       66.01025
H         87.04743       23.89404       67.61527
H         85.53045       23.96385       68.59653
H         86.32128       22.37619       68.26598
N         84.91625       22.04608       66.08866
C         84.13562       21.91189       64.85927
C         82.75156       22.50617       65.03648
O         82.36716       22.79113       66.16401
C         84.01171       20.43479       64.43794
C         85.36086       19.80396       64.23082
O         85.73378       18.74931       64.98107
O         86.12481       20.24441       63.38676
H         85.22726       21.19762       66.58622
H         84.66800       22.47213       64.05800
H         83.43691       20.35581       63.49008
H         83.46257       19.87353       65.22648
N         81.96845       22.78166       63.95166
C         80.67974       23.44687       64.08519
C         79.62316       22.74309       63.25995
O         79.74674       22.72538       62.04195
C         80.82816       24.90994       63.63012
C         79.65771       25.77587       64.10799
C         79.80150       27.21265       63.59758
C         78.76905       28.13734       64.25285
N         78.88668       29.49851       63.73220
H         82.34257       22.60478       63.00628
H         80.37584       23.45791       65.15455
H         80.95154       24.95668       62.52475
H         81.74733       25.33542       64.09039
H         79.66861       25.77322       65.22079
H         78.69010       25.35725       63.76637
H         79.67609       27.21594       62.49211
H         80.81534       27.59831       63.84293
H         78.94601       28.15008       65.35243
H         77.73980       27.75924       64.06706
H         79.85706       29.86115       63.87880
H         78.65667       29.50906       62.71199
H         78.21436       30.11829       64.23888
N         78.55229       22.14356       63.85251
C         77.46953       21.53448       63.09216
C         76.14670       22.10838       63.60329
O         75.79114       21.76938       64.72335
C         77.54630       19.99933       63.25816
C         76.56595       19.22421       62.41969
O         76.58861       17.87906       62.46498
O         75.77111       19.78759       61.68427
H         78.50249       22.11426       64.88263
H         77.61510       21.71887       62.01397
H         77.40738       19.72363       64.32578
H         78.56331       19.66932       62.95054
N         75.35282       22.99502       62.92493
C         75.62075       23.60962       61.63595
C         75.67483       25.11465       61.77811
O         76.54976       25.60395       62.47652
H         74.47656       23.29037       63.38414
H         74.81478       23.31733       60.93170
H         76.57869       23.29574       61.19004
N         74.79204       25.91446       61.10895
C         74.87257       27.37683       61.10806
C         73.59857       28.03562       61.61540
O         72.60533       27.35937       61.84501
C         75.20983       27.88680       59.68537
C         74.16463       27.55315       58.64602
O         73.56473       28.44937       58.07479
O         73.91420       26.27439       58.30516
H         74.06039       25.46098       60.54553
H         75.69369       27.70858       61.78109
H         76.18087       27.45788       59.35898
H         75.33491       28.99060       59.72166
N         73.58012       29.38808       61.81590
C         72.41325       30.14152       62.24651
C         71.88108       29.63601       63.55769
O         70.72101       29.25165       63.61019
H         74.44560       29.92457       61.65261
H         71.62312       30.07596       61.46704
H         72.69313       31.21150       62.36255
N         72.69157       29.56426       64.65008
C         72.25963       28.96794       65.90968
C         72.98614       27.65686       66.11961
O         73.91740       27.35664       65.38345
C         72.45736       29.93857       67.10242
C         73.92318       30.32240       67.34696
O         71.71765       31.11308       66.88403
H         73.67258       29.86702       64.55312
H         71.17797       28.71501       65.85669
H         72.10701       29.43377       68.03530
H         70.85842       31.01811       67.37222
H         74.54293       29.42175       67.53611
H         74.34566       30.87427       66.48276
H         73.99180       30.98085       68.23901
N         72.56737       26.79632       67.08791
C         73.21133       25.51214       67.33923
C         72.34975       24.36149       66.82948
O         72.92020       23.44989       66.24442
C         73.72516       25.39946       68.80223
C         72.58320       25.40847       69.84923
C         74.74300       26.53368       69.05668
C         73.08323       25.26771       71.29136
H         71.74245       27.05628       67.64776
H         74.13558       25.43682       66.72199
H         74.27121       24.43363       68.89090
H         71.90505       24.55405       69.64043
H         71.99608       26.34805       69.78440
H         75.24881       26.42007       70.03534
H         75.54268       26.51742       68.28501
H         74.24322       27.52493       69.02724
H         73.69312       26.14425       71.59394
H         72.21669       25.22076       71.98304
H         73.68644       24.34283       71.40783
N         70.98110       24.39237       66.87109
C         70.14944       23.41596       66.15578
C         69.28526       22.58783       67.09021
O         69.21523       22.88222       68.27584
C         69.30417       24.12325       65.05890
C         68.35540       25.20084       65.61210
O         70.17162       24.70931       64.12222
H         70.51326       25.16194       67.36963
H         70.79879       22.67783       65.63699
H         68.69283       23.34408       64.54751
H         69.63445       24.89868       63.30804
H         67.74242       25.61923       64.78513
H         67.66858       24.77474       66.37208
H         68.92190       26.04389       66.05974
N         68.64371       21.47884       66.60535
C         67.84542       20.57327       67.42459
C         68.56908       19.23431       67.54163
O         68.98619       18.90001       68.64137
C         66.40209       20.46491       66.85876
C         65.52572       19.53084       67.70188
O         66.42005       20.02039       65.52611
H         68.76979       21.23485       65.61050
H         67.75870       20.98341       68.45597
H         65.96404       21.48975       66.88761
H         65.52409       20.20650       65.14072
H         65.92730       18.49512       67.68833
H         65.47742       19.89108       68.75047
H         64.49431       19.50822       67.28957
N         68.76406       18.42303       66.46005
C         69.51883       17.17057       66.50567
C         70.64963       17.24475       65.48965
O         70.57791       18.06148       64.58210
C         68.54937       15.99674       66.23358
C         69.20031       14.60144       66.25068
C         68.13877       13.50600       66.04195
C         68.72956       12.09087       65.90308
N         69.41416       11.63861       67.11492
H         68.37369       18.70151       65.55012
H         69.96634       17.02981       67.51393
H         68.05728       16.14995       65.24780
H         67.76224       16.02511       67.02018
H         69.71373       14.44741       67.22329
H         69.94195       14.53440       65.42736
H         67.58940       13.72234       65.09970
H         67.40727       13.52412       66.87985
H         69.43214       12.06012       65.04107
H         67.89346       11.38916       65.68453
H         68.75847       11.65979       67.92927
H         69.73742       10.65435       66.97035
H         70.25199       12.23056       67.31031
N         71.75653       16.45383       65.60404
C         72.86504       16.52614       64.65438
C         73.42635       17.94702       64.55957
O         73.38616       18.48544       63.46309
C         73.97096       15.49133       64.96377
C         73.50476       14.04476       64.73110
C         74.60114       13.04335       64.99035
O         75.82472       13.43508       65.40077
O         74.38055       11.85493       64.82344
H         71.81512       15.79726       66.39691
H         72.47444       16.26759       63.64321
H         74.32410       15.58480       66.00537
H         74.82778       15.67880       64.27948
H         73.17925       13.93562       63.67356
H         72.64616       13.80747       65.39364
N         73.92990       18.66671       65.60432
C         74.02726       18.20965       66.97180
H         74.42430       19.03082       67.60569
H         73.02919       17.92621       67.36200
H         74.74273       17.37366       67.05679
H         74.24849       19.62934       65.41329
Ca        73.30312       18.64940       60.43365
O         73.68997       21.28920       58.97567
H         73.26463       20.91621       58.16299
H         74.30681       21.98516       58.63700
O         70.78209       19.82449       59.14967
H         69.95834       19.36734       59.45312
H         70.72410       19.81055       58.16152
O         74.81559       17.96270       58.03380
H         75.30395       18.67387       57.54842
H         75.00545       17.13414       57.52672
O         70.59636       17.59643       61.43661
H         70.94745       18.32509       62.00727
H         70.44148       16.84057       62.05629
O         72.56281       21.09427       61.98931
H         72.84628       21.42605       62.87757
H         71.91889       21.77082       61.66161
O         72.07690       16.15487       59.03758
H         71.18851       16.58425       58.95831
H         72.44255       16.17067       58.11792
O         74.13101       15.85868       61.25811
H         74.48822       16.44456       61.97008
H         74.40988       14.94776       61.52480

Ca 1.0



