%chk=apoCaM-CA-Ng.loop2.water3.frame791.chk
%nprocshared=20
%mem=10GB
%nosave
#b3lyp/svp scf=(tight,noincore,xqc) Test 
#IOP(5/87=12) Density=Current Pop=(MK,readradii) iop(6/33=2) iop(6/42=6)

apoCaM-CA-Ng.loop2.water3.frame791 

   -2  1 
C          7.51357      -15.33138       -3.67399
C          7.05988      -16.15979       -2.50866
O          7.81856      -16.98868       -2.02607
H          8.53749      -15.62054       -3.99256
H          6.81967      -15.47293       -4.52963
H          7.51725      -14.25987       -3.38333
N          5.80250      -15.99770       -2.01526
C          5.29167      -16.75553       -0.87977
C          5.98350      -16.27716        0.38476
O          5.90805      -15.08979        0.67490
C          3.76205      -16.57156       -0.78530
C          3.13472      -17.48469        0.23363
O          2.32097      -18.32384       -0.11999
O          3.45371      -17.37994        1.53729
H          5.18039      -15.32214       -2.48744
H          5.47131      -17.83907       -1.06372
H          3.32641      -16.81802       -1.78008
H          3.50618      -15.51478       -0.55479
N          6.67525      -17.13486        1.19140
C          7.37304      -16.66593        2.38977
C          8.53156      -15.74460        1.99784
O          8.91667      -15.77049        0.83758
C          7.87390      -17.86441        3.21057
H          6.68839      -18.13884        0.95407
H          6.63097      -16.10336        2.99915
H          8.37948      -17.55678        4.14660
H          7.00954      -18.50446        3.49156
H          8.58858      -18.47073        2.61629
N          9.11501      -14.84506        2.84798
C          8.74807      -14.64305        4.24323
C          7.91383      -13.39449        4.42152
O          7.68977      -12.66776        3.46303
C         10.00049      -14.69401        5.14403
C         11.08859      -13.65759        4.94472
O         12.07527      -13.74012        5.65830
O         11.06788      -12.66277        4.02957
H          9.83494      -14.22201        2.45314
H          8.07978      -15.45157        4.58382
H         10.47025      -15.69233        5.00367
H          9.68279      -14.62947        6.20598
N          7.36155      -13.11951        5.63819
C          6.47055      -11.99693        5.86524
C          5.10963      -12.18677        5.21238
O          4.86506      -13.23652        4.63409
H          7.57880      -13.72714        6.44184
H          6.95873      -11.07725        5.48457
H          6.29681      -11.88822        6.95700
N          4.15363      -11.20904        5.23408
C          4.35721       -9.88847        5.82406
C          4.52844       -8.86845        4.71469
O          4.33048       -9.20755        3.55488
C          3.18768       -9.49545        6.75458
C          2.95961      -10.47372        7.88226
N          1.73130      -11.00444        8.09999
O          3.88320      -10.76457        8.62733
H          3.26715      -11.38246        4.73290
H          5.29013       -9.86425        6.41894
H          2.25394       -9.38819        6.15889
H          3.41532       -8.50820        7.20861
H          0.92781      -10.74840        7.50714
H          1.57214      -11.65388        8.88502
N          4.95264       -7.60264        4.99491
C          5.14527       -6.59329        3.96293
C          6.59627       -6.18459        3.77079
O          6.83713       -5.35977        2.90101
H          5.15933       -7.34728        5.97318
H          4.53964       -5.69932        4.22739
H          4.78025       -6.95634        2.97976
N          7.61543       -6.68189        4.53225
C          9.00319       -6.24672        4.36901
C          9.60857       -6.76945        3.06968
O          9.57532       -7.96705        2.82473
C          9.86046       -6.66740        5.58899
C         11.33472       -6.23672        5.42417
O          9.29823       -6.12628        6.76548
H          7.39945       -7.34662        5.28973
H          9.02835       -5.13467        4.37344
H          9.86110       -7.76679        5.70200
H          9.76575       -5.28207        7.00185
H         11.90764       -6.48356        6.34149
H         11.80664       -6.76983        4.57193
H         11.40286       -5.14237        5.23957
N         10.28307       -5.91091        2.25001
C         10.99669       -6.30672        1.03950
C         12.48768       -6.39461        1.35509
O         13.08698       -5.39916        1.73528
C         10.68004       -5.29120       -0.10773
C         11.61449       -5.46793       -1.33772
C          9.19564       -5.40786       -0.50485
C         11.34204       -4.47378       -2.47141
H         10.37329       -4.92838        2.54866
H         10.66815       -7.31451        0.71070
H         10.85835       -4.26458        0.28372
H         11.54249       -6.49490       -1.74257
H         12.66362       -5.29659       -1.01379
H          8.53804       -5.28383        0.37993
H          8.91058       -4.61299       -1.22368
H          8.99418       -6.39879       -0.96596
H         11.38636       -3.42931       -2.09510
H         12.10788       -4.59695       -3.26627
H         10.35187       -4.65806       -2.93590
N         13.14236       -7.58428        1.19564
C         14.56101       -7.81369        1.43391
C         15.33103       -8.13159        0.14151
O         16.51258       -8.43121        0.24245
C         14.71957       -8.90793        2.51745
C         14.11001      -10.23631        2.16017
O         14.53280      -10.87981        1.21626
O         13.11448      -10.74033        2.91230
H         12.60394       -8.40117        0.89926
H         15.03803       -6.89830        1.84524
H         14.22711       -8.54126        3.44455
H         15.79547       -9.06263        2.74623
N         14.77426       -7.97850       -1.10243
C         15.53325       -8.07733       -2.35207
C         14.84043       -9.00939       -3.35243
O         14.42963       -8.54156       -4.40603
C         15.71996       -6.63201       -2.88793
C         16.47104       -6.51818       -4.20145
C         15.88330       -5.83423       -5.28300
C         17.75871       -7.06339       -4.36110
C         16.56738       -5.69838       -6.49457
C         18.43540       -6.93286       -5.58030
C         17.84136       -6.24917       -6.64440
H         13.80247       -7.65157       -1.18018
H         16.55511       -8.47209       -2.17427
H         16.29051       -6.06052       -2.12359
H         14.72157       -6.15020       -2.98476
H         14.89808       -5.39494       -5.18765
H         18.24063       -7.59101       -3.54908
H         16.10980       -5.16317       -7.31708
H         19.42341       -7.35849       -5.70081
H         18.36853       -6.14338       -7.58436
N         14.70201      -10.35668       -3.12998
C         14.15781      -11.29271       -4.11215
C         12.71185      -11.04742       -4.51673
O         12.24386      -11.70168       -5.43837
C         14.26696      -12.65524       -3.41697
C         15.48224      -12.46029       -2.53506
C         15.23672      -11.05863       -1.98749
H         14.82154      -11.23808       -5.00489
H         13.40188      -12.78349       -2.72422
H         14.30050      -13.52754       -4.10414
H         15.62649      -13.23693       -1.75431
H         16.38183      -12.43179       -3.19136
H         14.44895      -11.07608       -1.20846
H         16.18738      -10.64367       -1.59517
N         11.93207      -10.15292       -3.84668
C         10.55957       -9.84726       -4.21896
C         10.59813       -9.13197       -5.55062
O          9.98177       -9.59439       -6.49998
C          9.80480       -8.96273       -3.17856
C          9.52698       -9.63257       -1.80521
C         10.66599       -9.61441       -0.82933
O         10.56073      -10.24547        0.35877
O         11.67794       -8.99246       -1.07763
H         12.34750       -9.66064       -3.06320
H          9.97682      -10.79288       -4.30224
H          8.80135       -8.78375       -3.62343
H         10.27693       -7.96726       -3.04392
H          9.17990      -10.67373       -1.96955
H          8.71221       -9.07415       -1.29605
N         11.35409       -8.00445       -5.68718
C         11.49859       -7.27442       -6.92787
H         12.56619       -7.28929       -7.23503
H         10.88997       -7.70904       -7.74748
H         11.18687       -6.22126       -6.77071
H         11.88344       -7.65399       -4.87419
Ca        10.29787      -11.34958        2.33830
O         10.00100      -12.93984        0.09794
H          9.52842      -13.62796       -0.42893
H         10.95810      -13.04742       -0.13186
O          7.61622       -9.86038        1.96818
H          7.09703      -10.62263        1.60939
H          6.93563       -9.23875        2.32931
O          9.69988      -10.30043        5.18859
H          8.89635       -9.84513        5.54313
H         10.07459      -10.78150        5.96812

Ca 1.0



