%chk=apoCaM-CA-Ng.loop2.water4.frame783.chk
%nprocshared=20
%mem=10GB
%nosave
#b3lyp/svp scf=(tight,noincore,xqc) Test 
#IOP(5/87=12) Density=Current Pop=(MK,readradii) iop(6/33=2) iop(6/42=6)

apoCaM-CA-Ng.loop2.water4.frame783 

   -2  1 
C        114.76320       -9.52564        2.29273
C        115.39413      -10.88867        2.29208
O        116.60782      -10.98618        2.18327
H        114.17385       -9.37645        3.22245
H        115.53674       -8.73028        2.23168
H        114.08793       -9.43298        1.41640
N        114.61534      -11.99552        2.44189
C        115.13028      -13.35910        2.44608
C        115.16433      -13.86623        3.87188
O        114.36857      -14.71539        4.25064
C        114.28064      -14.23837        1.50455
C        114.77477      -15.66175        1.48489
O        116.03755      -15.93642        1.10562
O        114.03733      -16.57238        1.82802
H        113.60367      -11.86157        2.59982
H        116.17777      -13.39693        2.07233
H        114.33612      -13.83176        0.47227
H        113.21633      -14.21730        1.82971
N        116.11765      -13.38045        4.71491
C        116.25960      -13.79491        6.10326
C        116.04068      -12.59038        7.00415
O        116.06778      -11.47682        6.49978
C        117.64980      -14.42067        6.28763
H        116.78587      -12.68278        4.35128
H        115.47981      -14.54765        6.34686
H        118.44096      -13.69077        6.01536
H        117.84332      -14.75570        7.32368
H        117.74341      -15.30644        5.62259
N        115.71056      -12.69187        8.32493
C        115.60403      -13.94061        9.07718
C        114.16415      -14.36801        9.26002
O        113.26288      -13.61847        8.91730
C        116.32847      -13.79582       10.43853
C        115.73238      -12.76327       11.37628
O        116.30488      -12.55542       12.57635
O        114.73862      -12.12034       11.07606
H        115.46828      -11.81148        8.80292
H        116.07384      -14.76569        8.51968
H        117.38740      -13.52051       10.24649
H        116.31822      -14.77168       10.96742
N        113.88043      -15.60329        9.76602
C        112.53030      -16.06781       10.03608
C        111.65447      -15.99329        8.79395
O        111.98883      -16.64935        7.81982
H        114.65944      -16.24328        9.98428
H        112.14164      -15.46815       10.87490
H        112.56481      -17.11931       10.39413
N        110.54377      -15.19390        8.70894
C        110.04341      -14.36895        9.80893
C        109.13439      -13.23019        9.34950
O        108.84323      -13.11488        8.16295
C        109.31647      -15.25578       10.85624
C        108.02453      -15.82749       10.31808
N        106.83548      -15.46288       10.85584
O        108.04994      -16.61672        9.38604
H        110.05875      -15.16257        7.79746
H        110.90158      -13.85238       10.27692
H        109.09764      -14.64451       11.75449
H        109.96100      -16.08989       11.20175
H        106.78982      -14.78722       11.63281
H        105.95288      -15.84424       10.48447
N        108.62916      -12.35509       10.26730
C        107.65152      -11.32909        9.94961
C        107.77702      -10.05565       10.77675
O        106.85258       -9.26175       10.71287
H        108.83729      -12.51778       11.26447
H        106.66331      -11.76105       10.21536
H        107.62592      -11.09166        8.86289
N        108.85360       -9.78551       11.58106
C        108.91421       -8.63134       12.48212
C        109.93578       -7.61126       11.99241
O        111.08622       -7.95213       11.76193
C        109.20655       -9.08658       13.92860
C        108.10162      -10.00112       14.46467
O        110.43432       -9.76502       14.00040
H        109.65694      -10.42208       11.58082
H        107.92726       -8.12176       12.51667
H        109.21784       -8.18435       14.58781
H        111.10587       -9.12040       14.34466
H        107.12205       -9.47711       14.43842
H        108.02858      -10.93116       13.86160
H        108.32165      -10.27918       15.51709
N        109.53389       -6.32232       11.78210
C        110.36122       -5.28296       11.17159
C        111.54366       -4.89760       12.06189
O        111.33063       -4.44936       13.17862
C        109.51393       -3.99796       10.85345
C        110.39194       -2.93176       10.13355
C        108.28260       -4.33196        9.97571
C        109.71550       -1.57138        9.95980
H        108.56246       -6.09056       12.02365
H        110.71923       -5.67132       10.19746
H        109.15394       -3.57421       11.81741
H        110.70348       -3.31289        9.13725
H        111.30377       -2.73029       10.72930
H        107.59236       -5.04902       10.45806
H        107.66593       -3.43173        9.79009
H        108.60123       -4.75953        9.00175
H        109.44629       -1.15437       10.95295
H        110.42266       -0.87267        9.46624
H        108.81305       -1.62917        9.32183
N        112.81524       -4.95518       11.56754
C        114.00131       -4.43136       12.23169
C        114.63446       -3.29810       11.41667
O        115.59744       -2.71978       11.90580
C        115.03894       -5.55402       12.41206
C        114.48943       -6.70347       13.20444
O        114.06397       -6.51417       14.46767
O        114.43343       -7.81701       12.70787
H        112.95964       -5.34233       10.64045
H        113.72980       -4.01792       13.22747
H        115.93367       -5.15798       12.94033
H        115.36234       -5.91749       11.41045
N        114.16203       -2.91414       10.18840
C        114.70648       -1.80573        9.41252
C        115.14216       -2.29653        8.02415
O        114.62587       -1.78867        7.03290
C        113.59677       -0.72452        9.34283
C        113.95707        0.65193        8.81877
C        112.92355        1.60449        8.74983
C        115.25769        1.03425        8.43113
C        113.17748        2.90539        8.30967
C        115.50716        2.34162        7.99470
C        114.46934        3.27533        7.93515
H        113.34859       -3.38403        9.77746
H        115.58244       -1.36787        9.93664
H        113.22049       -0.56078       10.37661
H        112.75502       -1.13282        8.73980
H        111.91508        1.33826        9.04357
H        116.08625        0.34248        8.47180
H        112.37202        3.62768        8.26497
H        116.50844        2.63465        7.70689
H        114.66542        4.28636        7.60137
N        116.09231       -3.26970        7.84465
C        116.58909       -3.70685        6.54346
C        115.54376       -4.22674        5.56848
O        115.85855       -4.33305        4.39266
C        117.54553       -4.85465        6.88598
C        118.08456       -4.42014        8.22763
C        116.82517       -3.90565        8.92113
H        117.11649       -2.83320        6.09707
H        116.95342       -5.78143        7.07736
H        118.30455       -5.07711        6.10580
H        118.63670       -5.19966        8.79438
H        118.76465       -3.55717        8.04432
H        116.20417       -4.73437        9.32520
H        117.13312       -3.20385        9.72277
N        114.30903       -4.63309        5.98646
C        113.30300       -5.13550        5.05285
C        112.89973       -3.99695        4.14370
O        113.04375       -4.11028        2.93417
C        112.02483       -5.74126        5.71050
C        112.29038       -6.85839        6.75184
C        112.54476       -6.30905        8.12849
O        112.87958       -7.09714        9.16920
O        112.37386       -5.12166        8.34356
H        114.11350       -4.59298        6.98454
H        113.75777       -5.96761        4.46820
H        111.45668       -6.20055        4.87155
H        111.35266       -4.96927        6.14596
H        113.12426       -7.50061        6.40077
H        111.38185       -7.48992        6.85586
N        112.42688       -2.83918        4.68861
C        112.07266       -1.66738        3.91754
H        111.01647       -1.39721        4.12375
H        112.72408       -0.82151        4.22532
H        112.19570       -1.82651        2.82646
H        112.33943       -2.76768        5.71461
Ca       113.29925       -9.28179        9.39686
O        111.48197      -11.32257       10.23540
H        111.71037      -11.74752       11.09945
H        112.21739      -11.57831        9.63009
O        113.24508      -10.58519       13.19186
H        113.25099      -11.57484       13.18885
H        113.25999      -10.34380       14.15159
O        116.38964       -8.91667        9.77144
H        116.32127       -8.99702        8.78678
H        116.59414       -9.83452       10.08164
O        113.41766      -10.16306        6.67306
H        113.17574      -11.03953        7.06507
H        114.24775       -9.89954        7.14467

Ca 1.0



