%chk=apoCaM-CA-Ng.loop1.water3.frame1046.chk
%nprocshared=20
%mem=10GB
%nosave
#b3lyp/svp scf=(tight,noincore,xqc) Test 
#IOP(5/87=12) Density=Current Pop=(MK,readradii) iop(6/33=2) iop(6/42=6)

apoCaM-CA-Ng.loop1.water3.frame1046 

   0  1 
C         13.78723       79.28113       56.78328
C         13.80409       77.95690       57.48833
O         14.81695       77.61741       58.07495
H         12.99711       79.92650       57.22119
H         14.76611       79.79702       56.88628
H         13.57749       79.12638       55.70423
N         12.68622       77.17680       57.48791
C         12.55587       75.87112       58.14236
C         13.41981       74.78497       57.49255
O         12.89614       73.93422       56.78657
C         11.05987       75.45330       58.20554
C         10.33843       75.31236       56.88335
O         10.89841       75.52650       55.81921
O          9.04205       74.94985       56.88224
H         11.85473       77.57244       57.02290
H         12.85952       75.96017       59.20773
H         10.51316       76.21579       58.80169
H         10.98791       74.48595       58.74930
N         14.75261       74.70659       57.76138
C         15.64206       73.71398       57.17700
C         16.14770       72.68304       58.18968
O         16.00636       71.51007       57.86778
C         16.79888       74.39824       56.41667
C         16.32818       75.34487       55.28904
C         15.51504       74.63508       54.18993
C         15.10633       75.60639       53.07533
N         14.30598       74.92328       52.05776
H         15.16081       75.38533       58.40358
H         15.09886       73.11229       56.41871
H         17.44894       73.61480       55.96743
H         17.42053       74.98555       57.12244
H         17.23314       75.79337       54.82354
H         15.72289       76.16891       55.72380
H         14.58425       74.21188       54.61681
H         16.12098       73.81040       53.75458
H         16.01606       76.03707       52.60155
H         14.50736       76.43737       53.51057
H         14.85880       74.14957       51.62210
H         13.43465       74.53367       52.48654
H         14.03685       75.60775       51.31471
N         16.75746       72.93059       59.39252
C         16.89049       74.21108       60.09139
C         15.57415       74.60826       60.75333
O         14.62618       73.83772       60.70950
C         18.09686       74.17353       61.07399
C         18.21463       72.93907       61.94609
O         17.35833       72.64413       62.94152
O         19.13850       72.16757       61.74050
H         17.05603       72.08851       59.90650
H         17.13985       75.00602       59.36139
H         18.14464       75.09290       61.69242
H         19.00316       74.17417       60.42789
N         15.42794       75.84787       61.31451
C         14.15937       76.34956       61.83940
C         14.24572       76.68132       63.30791
O         15.29438       76.51809       63.89898
H         16.23621       76.48761       61.32994
H         13.34623       75.60575       61.70883
H         13.87698       77.26529       61.27683
N         13.15238       77.14383       63.97496
C         13.14703       77.40406       65.41772
C         12.88475       78.88426       65.67436
O         12.59022       79.58749       64.71771
C         12.06663       76.50362       66.05302
C         12.33681       75.04993       65.77764
O         13.47045       74.47552       66.22358
O         11.52807       74.38338       65.15162
H         12.27879       77.29237       63.44599
H         14.13617       77.16050       65.85767
H         11.07254       76.78148       65.63573
H         12.01810       76.62196       67.14563
N         12.98162       79.48873       66.89876
C         13.38204       78.89281       68.16534
C         14.82244       78.43634       68.17460
O         15.69512       79.22256       67.83659
H         12.76166       80.49709       66.93626
H         12.68429       78.09994       68.48664
H         13.31033       79.68334       68.94404
N         15.15170       77.20118       68.64714
C         16.53301       76.74470       68.79150
C         17.16691       76.50442       67.42922
O         16.61577       75.75752       66.63467
C         16.61454       75.46514       69.65907
C         16.13422       75.73260       71.09611
O         17.95071       75.03263       69.70811
H         14.38942       76.59051       68.97918
H         17.11539       77.51574       69.34598
H         15.98224       74.67858       69.19304
H         17.93934       74.10995       70.07210
H         16.21435       74.80447       71.70097
H         16.76485       76.51376       71.57428
H         15.07712       76.06564       71.11920
N         18.36260       77.09185       67.12975
C         19.11775       76.95701       65.88389
C         19.50014       75.50867       65.59075
O         18.64375       74.71748       65.22183
C         18.37841       77.58035       64.66350
C         17.95392       79.04239       64.95043
C         19.25092       77.49371       63.39161
C         17.10222       79.66634       63.84059
H         18.79573       77.68709       67.85283
H         20.05443       77.54343       66.02322
H         17.47339       76.98297       64.49115
H         18.85222       79.67322       65.12358
H         17.33490       79.06292       65.86898
H         20.17502       78.09752       63.51072
H         19.54191       76.44598       63.17444
H         18.69741       77.84331       62.49793
H         17.66949       79.76225       62.89355
H         16.18964       79.05943       63.66383
H         16.78984       80.68680       64.14578
N         20.80205       75.12089       65.67291
C         21.29574       73.83022       65.19591
C         21.72366       72.91707       66.33204
O         22.34268       71.89677       66.05356
C         22.44940       74.06449       64.17814
C         23.71195       74.68391       64.79859
O         22.00812       74.89596       63.13549
H         21.48349       75.78771       66.06110
H         20.50006       73.28039       64.64598
H         22.76559       73.08072       63.75701
H         21.48036       74.32922       62.51455
H         23.51949       75.69554       65.20830
H         24.11193       74.03782       65.60823
H         24.49815       74.78139       64.02015
N         21.37951       73.17132       67.62597
C         21.80541       72.33886       68.74386
C         20.61674       71.57710       69.29998
O         19.63508       72.19830       69.68225
C         22.48153       73.21187       69.82497
C         23.70821       73.94263       69.26523
O         21.56689       74.15443       70.32643
H         20.77379       73.97876       67.83946
H         22.56031       71.59240       68.41023
H         22.81282       72.53005       70.64380
H         21.86537       74.38865       71.24376
H         23.41504       74.63931       68.45018
H         24.19414       74.53359       70.06976
H         24.44488       73.21334       68.86699
N         20.63994       70.21160       69.36091
C         19.53953       69.38441       69.84521
C         18.33870       69.55806       68.92990
O         17.31943       70.09222       69.34488
C         19.22774       69.66817       71.33551
C         18.28064       68.59871       71.91042
C         17.88382       68.90262       73.35709
C         16.97304       67.79385       73.90455
N         16.52357       68.10222       75.26063
H         21.48567       69.71680       69.03698
H         19.86004       68.31932       69.78920
H         18.78431       70.67929       71.45379
H         20.17347       69.63341       71.92007
H         18.78900       67.60988       71.86287
H         17.35099       68.54061       71.30678
H         17.34102       69.87304       73.38281
H         18.79221       68.98174       73.99334
H         17.52876       66.82918       73.90917
H         16.08264       67.68057       73.24627
H         17.34470       68.20729       75.89934
H         15.96123       68.98425       75.25706
H         15.92105       67.32029       75.60569
N         18.41466       69.11805       67.64292
C         17.34971       69.30107       66.66521
C         17.84979       70.12971       65.48214
O         17.33766       71.23013       65.33931
C         16.70720       67.95920       66.26146
C         15.93842       67.32825       67.43412
C         15.26486       66.05171       67.01809
O         14.42705       66.05813       66.12966
O         15.56861       64.89520       67.63713
H         19.27184       68.63061       67.35977
H         16.52350       69.89512       67.11703
H         17.46665       67.23618       65.91405
H         15.98229       68.15157       65.43959
H         15.15659       68.03328       67.79281
H         16.63663       67.11971       68.27309
N         18.81427       69.76016       64.58325
C         19.52964       68.50249       64.53908
H         20.12909       68.34136       65.45114
H         18.83908       67.66172       64.34894
H         20.24446       68.51721       63.68892
H         19.05622       70.43906       63.84526
Ca        15.75803       73.89648       63.87534
O         13.21000       72.44350       63.17601
H         13.15769       73.42248       63.03621
H         14.05647       72.17212       62.73927
O         14.29982       70.90990       65.70672
H         13.41205       71.00754       66.13368
H         14.19448       70.14985       65.08104
O         16.07453       72.60133       67.64104
H         15.31110       72.32106       68.20593
H         16.86352       72.52852       68.23478

Ca 1.0



