%chk=apoCaM-CA-Ng.loop4.water5.frame628.chk
%nprocshared=20
%mem=10GB
%nosave
#b3lyp/svp scf=(tight,noincore,xqc) Test 
#IOP(5/87=12) Density=Current Pop=(MK,readradii) iop(6/33=2) iop(6/42=6)

apoCaM-CA-Ng.loop4.water5.frame628 

   -3  1 
C        103.54385       47.63246       -3.73920
C        104.89683       48.11666       -4.16065
O        105.07293       48.45320       -5.32274
H        102.83652       47.64983       -4.59618
H        103.62127       46.59391       -3.35594
H        103.14886       48.29244       -2.93838
N        105.90620       48.19812       -3.24697
C        107.24343       48.68770       -3.55797
C        107.16598       50.11156       -4.06935
O        107.58067       50.38651       -5.18790
C        107.98959       47.73634       -4.52117
C        108.20028       46.39035       -3.89092
O        108.91388       46.28944       -2.75276
O        107.74512       45.38506       -4.41147
H        105.71182       47.92444       -2.27137
H        107.84231       48.72336       -2.61941
H        108.99501       48.15499       -4.74572
H        107.44053       47.63199       -5.48038
N        106.67368       51.08368       -3.25016
C        106.64997       52.50095       -3.60633
C        107.70391       53.23206       -2.77495
O        108.18334       52.64078       -1.81581
C        105.21722       53.10049       -3.42546
C        104.71628       53.00466       -1.95790
C        104.24017       52.43548       -4.40497
C        103.43558       53.80075       -1.69591
H        106.38007       50.80862       -2.30081
H        106.94989       52.60068       -4.66387
H        105.25137       54.16891       -3.69389
H        105.48865       53.42731       -1.28134
H        104.54254       51.94581       -1.67141
H        103.24027       52.91334       -4.36776
H        104.62353       52.56143       -5.43768
H        104.12764       51.35181       -4.18887
H        103.16631       53.71854       -0.62138
H        103.59820       54.87372       -1.93403
H        102.58166       53.41682       -2.28814
N        108.17851       54.48775       -3.04584
C        107.82412       55.34927       -4.17622
C        108.11119       54.68308       -5.51621
O        107.19130       54.54542       -6.31150
C        108.51970       56.73163       -4.06692
C        110.02805       56.71831       -4.13391
O        110.60091       57.31708       -5.02973
O        110.75856       56.08305       -3.19732
H        108.87237       54.84876       -2.37574
H        106.74554       55.58519       -4.12440
H        108.22118       57.20528       -3.10633
H        108.13245       57.37290       -4.88926
N        109.34989       54.20250       -5.81775
C        109.64541       53.47549       -7.03972
C        109.51903       54.32809       -8.27945
O        110.22549       55.31990       -8.39147
H        110.10802       54.29190       -5.12711
H        108.98684       52.58212       -7.09974
H        110.69519       53.11226       -6.99785
N        108.67485       53.95420       -9.28362
C        108.59951       54.63171      -10.57408
C        107.22847       55.22846      -10.86216
O        107.09638       55.85026      -11.90771
C        109.07812       53.66181      -11.68946
C        108.44150       52.29163      -11.67824
O        109.20800       51.20320      -11.47426
O        107.24916       52.14553      -11.86828
H        108.09377       53.11240       -9.14959
H        109.29291       55.50094      -10.60168
H        110.16744       53.50306      -11.54077
H        108.94627       54.12847      -12.69032
N        106.17103       55.13294       -9.99931
C        104.87653       55.74743      -10.28146
C        104.15344       55.14554      -11.47872
O        103.09622       55.64917      -11.82719
H        106.28136       54.64705       -9.09843
H        105.03146       56.83546      -10.45423
H        104.21351       55.63614       -9.39621
N        104.65362       54.06537      -12.14691
C        104.06387       53.43011      -13.31851
C        102.74419       52.73624      -13.02941
O        102.14434       52.24076      -13.97443
C        103.97263       54.39766      -14.52052
C        105.35344       54.97091      -14.89058
C        105.35710       55.74160      -16.18872
N        106.50990       56.28870      -16.63840
O        104.33463       55.86403      -16.84812
H        105.52123       53.64892      -11.81736
H        104.74670       52.61211      -13.64312
H        103.25619       55.22443      -14.32913
H        103.60064       53.81242      -15.39060
H        106.07863       54.13547      -15.00041
H        105.70120       55.63997      -14.07699
H        107.38251       56.19306      -16.09806
H        106.53284       56.80479      -17.53039
N        102.26478       52.57684      -11.75956
C        101.02938       51.85718      -11.46927
C        101.29095       50.54992      -10.72398
O        100.32602       49.83818      -10.48587
C        100.01953       52.77056      -10.71276
C        100.50623       53.18601       -9.31451
C         99.68462       54.02038      -11.54079
H        102.80425       52.93885      -10.96177
H        100.53321       51.55326      -12.41705
H         99.07433       52.19862      -10.57918
H         99.72644       53.79306       -8.80651
H        100.68925       52.28886       -8.69116
H        101.43434       53.79196       -9.36388
H         98.91264       54.62926      -11.02340
H        100.58496       54.65246      -11.68964
H         99.28567       53.72817      -12.53508
N        102.54565       50.15491      -10.33282
C        102.79364       48.90206       -9.61624
C        103.78906       48.01727      -10.35683
O        104.34865       48.42623      -11.36338
C        103.30939       49.21844       -8.20238
C        102.30054       50.03140       -7.43155
N        102.59484       51.28681       -7.02605
O        101.20399       49.55455       -7.17897
H        103.35821       50.75969      -10.51571
H        101.85319       48.31663       -9.52286
H        104.26964       49.77316       -8.28693
H        103.50402       48.28379       -7.63457
H        103.50609       51.70949       -7.25055
H        101.90424       51.84415       -6.50172
N        104.00782       46.74439       -9.91020
C        104.89261       45.78650      -10.58301
C        104.53805       44.34647      -10.17448
O        103.70164       44.15359       -9.30420
C        106.37281       46.14517      -10.26977
C        107.37896       45.30026      -11.01838
C        108.24483       44.43543      -10.32527
C        107.45299       45.36008      -12.42110
C        109.14931       43.62885      -11.02349
C        108.36309       44.55717      -13.11675
C        109.20879       43.68514      -12.42329
O        110.07026       42.90787      -13.11088
H        103.45379       46.44099       -9.09781
H        104.69209       45.84943      -11.67486
H        106.52101       46.03831       -9.17209
H        106.57360       47.20694      -10.52778
H        108.21246       44.37318       -9.24616
H        106.80182       46.02327      -12.97591
H        109.79995       42.95795      -10.47610
H        108.40642       44.60818      -14.19750
H        110.66468       42.28279      -12.67161
N        105.10103       43.27463      -10.81000
C        104.73960       41.89069      -10.52393
C        105.97850       41.10040      -10.09885
O        106.39298       40.21673      -10.83737
C        104.08956       41.26795      -11.78172
C        102.84302       42.03534      -12.24212
C        102.19238       41.33441      -13.39953
O        101.71397       40.08418      -13.24770
O        102.08483       41.89449      -14.47857
H        105.77099       43.42852      -11.57310
H        103.97888       41.82230       -9.72246
H        103.79969       40.22178      -11.53522
H        104.82166       41.24505      -12.62027
H        103.13434       43.06540      -12.54541
H        102.10817       42.10489      -11.41231
N        106.66221       41.33218       -8.93852
C        106.29321       42.30314       -7.90927
C        104.98473       41.94067       -7.21946
O        104.43661       40.87538       -7.47206
C        107.43062       42.42628       -6.86567
C        107.63854       41.15654       -6.01709
C        108.83374       41.31601       -5.12770
O        109.77503       40.54384       -5.21807
O        108.87707       42.31639       -4.23031
H        107.52062       40.77710       -8.79989
H        106.19630       43.29423       -8.39089
H        107.21907       43.27618       -6.18149
H        108.37045       42.66485       -7.41086
H        107.79430       40.26870       -6.66375
H        106.74291       40.97072       -5.38598
N        104.43426       42.78808       -6.30740
C        103.20648       42.47323       -5.60978
H        102.37896       42.33663       -6.33820
H        103.33583       41.54255       -5.01678
H        102.94045       43.30030       -4.91780
H        104.89708       43.68556       -6.09955
Ca       108.34027       43.65397       -1.70676
O        105.68807       42.87302       -2.81908
H        104.94678       42.25926       -2.58751
H        105.26281       43.76456       -2.88884
O        109.39958       40.67157       -1.56849
H        109.66584       40.27166       -2.43370
H        109.91530       40.16344       -0.89363
O        111.34739       43.24459       -2.72423
H        112.16889       43.28241       -2.17318
H        111.60175       42.70320       -3.51316
O        107.64455       42.67240        0.99160
H        106.73310       43.02708        1.14492
H        107.50130       41.81047        0.52553
O        110.56666       43.56292        0.27951
H        110.64345       44.40028        0.80193
H        111.03370       42.88162        0.82483

Ca 1.0



