%chk=apoCaM-CA-Ng.loop2.water4.frame10.chk
%nprocshared=20
%mem=10GB
%nosave
#b3lyp/svp scf=(tight,noincore,xqc) Test 
#IOP(5/87=12) Density=Current Pop=(MK,readradii) iop(6/33=2) iop(6/42=6)

apoCaM-CA-Ng.loop2.water4.frame10 

   -2  1 
C         59.66408       47.58966       62.44314
C         58.88411       48.84691       62.68610
O         57.71647       48.77459       63.04202
H         60.54105       47.56014       63.12374
H         59.03724       46.69122       62.62453
H         60.02144       47.57269       61.39168
N         59.48663       50.05371       62.51273
C         58.80920       51.32479       62.72652
C         57.64685       51.49480       61.76900
O         56.57049       51.84349       62.22572
C         59.79705       52.49759       62.55334
C         59.14581       53.81926       62.86995
O         59.08240       54.69373       62.02088
O         58.62922       54.04259       64.09431
H         60.47868       50.06339       62.22671
H         58.44088       51.36475       63.77763
H         60.19498       52.50878       61.51459
H         60.65074       52.36428       63.25212
N         57.80360       51.29828       60.42504
C         56.77926       51.59792       59.42701
C         55.46781       50.83255       59.60261
O         54.49444       51.22878       58.97751
C         56.54097       53.11506       59.38544
H         58.71643       50.96550       60.07901
H         57.17266       51.33539       58.41935
H         57.50412       53.63550       59.19317
H         55.84900       53.37466       58.55530
H         56.11171       53.49039       60.33579
N         55.36343       49.71172       60.38348
C         54.12768       48.93809       60.55397
C         53.06196       49.70844       61.34896
O         51.95014       49.21624       61.47218
C         53.61063       48.43714       59.17386
C         52.56195       47.35070       59.22624
O         52.15106       46.81533       60.39140
O         52.09862       46.92130       58.18198
H         56.20564       49.35237       60.85429
H         54.38440       48.03156       61.14425
H         54.46790       48.01173       58.60856
H         53.19265       49.28300       58.59216
N         53.33449       50.89896       61.96290
C         52.35445       51.65215       62.72750
C         51.79443       50.84081       63.86945
O         50.59180       50.61832       63.88726
H         54.27221       51.30406       61.90391
H         51.53282       51.96570       62.04698
H         52.82895       52.57077       63.13670
N         52.60731       50.34829       64.84919
C         52.11381       49.49437       65.92792
C         52.34721       50.11225       67.29535
O         52.94267       51.17559       67.40251
C         52.78700       48.11059       65.83433
C         52.46722       47.43437       64.52661
N         53.45267       47.07721       63.67259
O         51.30268       47.19961       64.23946
H         53.61806       50.55385       64.80857
H         51.01419       49.35122       65.83982
H         52.42282       47.44555       66.64459
H         53.88638       48.22599       65.95659
H         54.44083       47.26561       63.89373
H         53.22623       46.60513       62.78596
N         51.85268       49.47735       68.39571
C         51.95363       49.96695       69.75860
C         52.64914       48.94394       70.62220
O         52.25512       47.78527       70.59823
H         51.33446       48.59572       68.26223
H         50.92100       50.10303       70.14442
H         52.46916       50.94978       69.81727
N         53.67206       49.30407       71.44996
C         54.34655       48.33654       72.31391
C         55.28940       47.41680       71.54212
O         55.83874       46.51559       72.15972
C         55.07843       49.03100       73.49383
C         56.26211       49.90515       73.07006
O         54.16896       49.81949       74.21763
H         53.91893       50.30228       71.51258
H         53.56331       47.70375       72.79020
H         55.49725       48.24718       74.16926
H         53.60651       49.19648       74.74918
H         55.94344       50.73465       72.40768
H         56.73465       50.34533       73.97396
H         57.02735       49.29488       72.55097
N         55.52481       47.57231       70.20342
C         56.39985       46.68850       69.43367
C         55.57145       45.90243       68.42918
O         54.38345       46.16546       68.29878
C         57.55987       47.49817       68.75917
C         57.04453       48.54118       67.72335
C         58.42526       48.16389       69.84508
C         58.15967       49.28808       66.98189
H         55.05014       48.32633       69.69120
H         56.86107       45.92967       70.10233
H         58.20946       46.77451       68.21960
H         56.40203       49.30125       68.21456
H         56.43825       48.01490       66.95571
H         57.84595       48.94001       70.38547
H         58.78070       47.40450       70.57310
H         59.32795       48.63844       69.41046
H         58.75811       49.91565       67.67380
H         58.82844       48.57371       66.45765
H         57.71081       49.97038       66.22853
N         56.14011       44.90714       67.68718
C         55.41309       44.16719       66.65965
C         55.39195       42.65141       66.93066
O         54.90627       41.91780       66.08116
C         56.05012       44.53608       65.30189
C         55.21447       44.19680       64.09303
O         55.62155       44.50818       62.98558
O         54.00129       43.62104       64.20831
H         57.14144       44.69649       67.81787
H         54.35674       44.51175       66.61695
H         57.05984       44.07843       65.22326
H         56.16890       45.64251       65.26962
N         55.83432       42.10456       68.10676
C         55.75921       40.66568       68.38438
C         56.76247       39.90673       67.52123
O         57.94185       40.19714       67.65674
C         56.08768       40.37522       69.87033
C         56.00490       38.89311       70.17671
C         54.77378       38.21639       70.11496
C         57.16532       38.17022       70.50688
C         54.70812       36.84221       70.36724
C         57.09545       36.79571       70.75557
C         55.86841       36.13193       70.68430
H         56.18051       42.72734       68.85128
H         54.71445       40.34210       68.20768
H         55.38992       40.92412       70.53888
H         57.11358       40.75064       70.08251
H         53.86578       38.75077       69.86600
H         58.12691       38.66523       70.55675
H         53.75796       36.32658       70.31275
H         57.99419       36.24369       70.99891
H         55.81700       35.06737       70.87414
N         56.42363       38.89579       66.65673
C         57.41369       38.11846       65.91692
C         58.23052       38.89401       64.88952
O         59.09375       38.28543       64.27274
C         56.58542       37.03069       65.22359
C         55.44430       36.84485       66.20192
C         55.11078       38.29499       66.53827
H         58.09258       37.65516       66.66917
H         56.13626       37.44254       64.29015
H         57.15588       36.11153       64.96832
H         54.58886       36.25001       65.81836
H         55.84693       36.34904       67.11680
H         54.57110       38.77660       65.69341
H         54.50089       38.31488       67.45894
N         58.02086       40.22238       64.64453
C         58.78217       40.99854       63.66947
C         59.61303       42.08993       64.33908
O         60.36889       42.74561       63.63528
C         57.80480       41.65200       62.67613
C         56.98665       40.63302       61.87129
C         55.92713       41.34640       61.08314
O         55.91815       41.30376       59.86360
O         54.97625       42.03749       61.74143
H         57.28041       40.72170       65.15420
H         59.49484       40.34615       63.11852
H         58.35536       42.30218       61.96027
H         57.11738       42.29283       63.26763
H         56.47264       39.91683       62.54659
H         57.66746       40.06461       61.20028
N         59.53398       42.35024       65.67676
C         60.31804       43.36174       66.35281
H         61.01523       43.88747       65.66912
H         59.63516       44.10806       66.81069
H         60.91121       42.88033       67.15906
H         58.88421       41.82722       66.26657
Ca        53.37215       43.24437       60.71172
O         50.94215       44.66526       62.54813
H         50.04436       44.25523       62.47071
H         51.19416       44.53292       63.49649
O         50.75012       43.54840       59.24520
H         51.16096       43.46285       58.34846
H         50.87845       44.49980       59.48661
O         51.30548       41.33436       62.03320
H         51.90103       40.72710       61.52602
H         50.58010       41.55811       61.39740
O         54.98620       44.97685       58.84376
H         55.33476       44.05220       58.77906
H         55.77787       45.52552       59.07196

Ca 1.0



