%chk=apoCaM-CA-Ng.loop3.water4.frame41.chk
%nprocshared=20
%mem=10GB
%nosave
#b3lyp/svp scf=(tight,noincore,xqc) Test 
#IOP(5/87=12) Density=Current Pop=(MK,readradii) iop(6/33=2) iop(6/42=6)

apoCaM-CA-Ng.loop3.water4.frame41 

   0  1 
C         54.24978       77.21148       43.45346
C         54.55767       78.54927       42.84500
O         54.82474       78.60093       41.65367
H         53.36422       76.76950       42.95057
H         55.11892       76.53290       43.32111
H         54.03369       77.29698       44.53923
N         54.55047       79.68030       43.61364
C         54.82351       81.03500       43.12513
C         56.26621       81.24103       42.66853
O         56.59591       82.34864       42.26715
C         53.82242       81.44923       42.02398
C         52.38241       81.37959       42.46621
O         51.50065       81.68480       41.68032
O         52.04706       80.99612       43.71456
H         54.31731       79.58681       44.61425
H         54.68236       81.73860       43.97654
H         53.95379       80.81174       41.12963
H         54.03133       82.49776       41.72055
N         57.19889       80.25219       42.75850
C         58.60670       80.44502       42.42213
C         58.82388       80.57657       40.92125
O         59.95658       80.83347       40.53280
C         59.42792       79.23919       42.95080
C         59.30363       79.09886       44.48316
C         59.85791       77.76482       44.99195
C         59.54904       77.60553       46.48965
N         59.97311       76.29792       46.98450
H         56.91883       79.34057       43.13427
H         58.97467       81.36433       42.93020
H         60.50460       79.33701       42.68713
H         59.03478       78.32090       42.45875
H         58.23829       79.11868       44.78173
H         59.80685       79.95477       44.98345
H         60.95168       77.70080       44.80532
H         59.35191       76.93839       44.44499
H         58.45066       77.70286       46.64986
H         60.05695       78.40936       47.06672
H         61.00708       76.19002       46.87833
H         59.72119       76.22118       47.99667
H         59.47908       75.53949       46.45953
N         57.82599       80.33493       40.01547
C         58.06493       80.26649       38.57887
C         57.08060       81.14438       37.80595
O         56.04985       81.52278       38.34784
C         57.97996       78.76715       38.21437
C         58.42434       78.40704       36.83291
O         57.78800       78.76820       35.86302
O         59.50364       77.61967       36.66328
H         56.88898       80.06189       40.34564
H         59.09347       80.62264       38.35061
H         56.95057       78.38480       38.39033
H         58.65955       78.22706       38.91129
N         57.36382       81.53902       36.53013
C         56.47731       82.35561       35.71021
C         55.20532       81.61303       35.39356
O         54.12694       82.11288       35.67989
H         58.26555       81.26061       36.11459
H         56.98253       82.57808       34.74606
H         56.26157       83.32186       36.21735
N         55.27795       80.37416       34.83039
C         54.12562       79.51587       34.56812
C         53.26224       79.41985       35.81746
O         52.06659       79.66040       35.71905
C         54.58379       78.12527       34.07081
C         55.44174       78.22133       32.82558
N         54.96847       78.78114       31.68688
O         56.58442       77.79062       32.85153
H         56.21478       80.00926       34.62352
H         53.50745       79.97719       33.76687
H         53.69507       77.49964       33.83912
H         55.16437       77.61935       34.87439
H         54.00908       79.15085       31.63474
H         55.56850       78.85009       30.85069
N         53.83020       79.26332       37.04989
C         53.08304       79.51864       38.27177
C         52.09880       78.42974       38.59113
O         52.54420       77.37425       39.00537
H         54.85011       79.12964       37.12166
H         52.57711       80.50346       38.17090
H         53.78145       79.60571       39.12957
N         50.75192       78.65343       38.47984
C         49.66403       77.70995       38.76146
C         49.53524       76.59151       37.72732
O         48.46805       76.49736       37.14852
C         49.65494       77.22124       40.23070
C         48.46253       76.32505       40.54065
C         47.14494       76.72180       40.23020
C         48.66130       75.06925       41.14254
C         46.06571       75.86910       40.48133
C         47.57767       74.22258       41.40264
C         46.27637       74.61741       41.06420
O         45.22365       73.80600       41.29322
H         50.45836       79.59379       38.17312
H         48.72871       78.30153       38.65209
H         49.59309       78.11939       40.88238
H         50.59885       76.68986       40.47301
H         46.94048       77.68011       39.77467
H         49.65792       74.73730       41.40474
H         45.06274       76.18102       40.21647
H         47.75175       73.25685       41.86024
H         45.32453       72.92869       41.68932
N         50.55086       75.72748       37.44449
C         50.56757       74.63010       36.47906
C         50.27460       75.10456       35.05808
O         51.20566       75.22434       34.27604
C         49.70017       73.40907       36.91519
C         49.79621       73.10574       38.42922
C         50.06818       72.16091       36.09121
C         51.19868       72.82383       38.97277
H         51.42685       75.83247       37.94655
H         51.62240       74.26541       36.48544
H         48.62827       73.63474       36.74061
H         49.13750       72.24361       38.67204
H         49.39336       73.98007       38.96547
H         49.41694       71.30682       36.37358
H         49.94656       72.34599       35.00863
H         51.12673       71.87107       36.25688
H         51.87436       73.68693       38.81033
H         51.13015       72.65296       40.06819
H         51.63658       71.91993       38.50640
N         48.99787       75.36070       34.64675
C         48.62880       75.74062       33.29018
C         48.95558       74.62153       32.32845
O         49.44398       74.90144       31.24277
C         47.12269       76.04429       33.21461
O         46.81820       77.10962       34.07394
H         48.22481       75.22753       35.30682
H         49.15955       76.67351       32.99297
H         46.54302       75.13953       33.50952
H         46.85819       76.33192       32.17216
H         45.82899       77.18448       34.08653
N         48.74488       73.31686       32.68731
C         49.00762       72.16857       31.82726
C         50.44553       72.09330       31.30915
O         50.68996       71.26842       30.43919
C         48.00591       72.17929       30.66481
H         48.35932       73.11899       33.62206
H         48.80209       71.23451       32.39735
H         48.14458       73.06516       30.01305
H         48.12013       71.26123       30.04960
H         46.97029       72.18760       31.06881
N         51.44551       72.90578       31.77273
C         52.76583       72.96874       31.15556
C         53.86721       72.51368       32.08490
O         53.67618       72.46697       33.29241
C         53.03981       74.40894       30.71153
H         51.26789       73.52986       32.56578
H         52.79701       72.31291       30.25961
H         54.02653       74.48881       30.20912
H         52.25092       74.74718       30.00717
H         53.03573       75.08878       31.59354
N         55.05702       72.11083       31.54519
C         56.20108       71.63294       32.31097
C         55.78843       70.50656       33.23751
O         55.96848       70.60797       34.44399
C         56.90936       72.80073       33.02975
C         57.47775       73.80005       32.00649
C         58.25897       74.91281       32.64095
O         58.39663       74.99893       33.97929
O         58.78874       75.74795       31.92648
H         55.14993       72.10494       30.51764
H         56.94725       71.20562       31.60312
H         57.76256       72.38880       33.61388
H         56.21345       73.31388       33.72844
H         56.65191       74.24371       31.40995
H         58.16425       73.25970       31.31775
N         55.21302       69.38892       32.71474
C         54.77115       68.26689       33.51635
H         53.68219       68.11621       33.36345
H         55.31137       67.35218       33.19577
H         54.95388       68.42190       34.60043
H         55.07473       69.32810       31.69437
Ca        59.49796       77.83831       33.73594
O         60.82097       78.27804       31.15471
H         61.41472       79.04575       31.35015
H         61.43592       77.54442       30.90238
O         61.55725       79.87844       34.08431
H         62.37832       79.56075       34.53685
H         61.14487       80.51049       34.72512
O         58.43196       80.50691       33.11777
H         58.81921       81.41694       33.08429
H         58.12899       80.32730       32.19248
O         61.67038       76.00663       34.55038
H         62.23597       76.36082       35.28174
H         62.29275       75.49211       33.97788

Ca 1.0



