%chk=apoCaM-CA-Ng.loop2.water4.frame1346.chk
%nprocshared=20
%mem=10GB
%nosave
#b3lyp/svp scf=(tight,noincore,xqc) Test 
#IOP(5/87=12) Density=Current Pop=(MK,readradii) iop(6/33=2) iop(6/42=6)

apoCaM-CA-Ng.loop2.water4.frame1346 

   -2  1 
C         66.80214       41.42555      119.08727
C         66.66044       42.18839      117.79791
O         67.65018       42.74585      117.34641
H         67.84655       41.48482      119.46344
H         66.13149       41.85760      119.85906
H         66.55373       40.35583      118.92540
N         65.48076       42.28309      117.11697
C         64.22097       41.66893      117.53334
C         63.13414       42.70147      117.82971
O         62.02860       42.29294      118.15914
C         63.76585       40.62224      116.49367
C         63.42542       41.15125      115.12540
O         63.04896       40.37108      114.26796
O         63.51686       42.45955      114.82600
H         65.48624       42.82807      116.24183
H         64.35757       41.10244      118.47720
H         62.86716       40.10022      116.88957
H         64.57295       39.86453      116.38578
N         63.38316       44.04582      117.82239
C         62.39602       45.02078      118.28293
C         61.25269       45.27684      117.30739
O         60.30921       45.94383      117.70962
C         63.08749       46.35849      118.57977
H         64.33560       44.37869      117.61311
H         61.97705       44.64920      119.24496
H         62.36485       47.09188      118.99668
H         63.89743       46.20911      119.32552
H         63.53179       46.77899      117.65116
N         61.29464       44.87670      116.00294
C         60.27565       45.25717      115.01914
C         59.69794       44.04249      114.30067
O         60.12945       42.92504      114.55246
C         60.90813       46.25945      114.02163
C         62.04306       45.62596      113.26681
O         63.18495       46.03757      113.39403
O         61.79225       44.54754      112.50350
H         62.12159       44.36581      115.66700
H         59.42767       45.77759      115.51398
H         61.27743       47.13980      114.59399
H         60.15106       46.62859      113.29816
N         58.72754       44.20877      113.35296
C         58.16644       43.11524      112.57759
C         58.93323       42.92154      111.28961
O         60.11993       42.63535      111.35129
H         58.37815       45.15757      113.15260
H         57.09864       43.33886      112.36657
H         58.18177       42.17036      113.16223
N         58.30622       43.02302      110.08018
C         58.98070       42.79695      108.80224
C         58.81859       43.99311      107.87676
O         58.09967       44.92757      108.20342
C         58.36454       41.55715      108.11982
C         58.45221       40.33094      108.99081
N         57.32833       39.71051      109.42063
O         59.54641       39.89284      109.31042
H         57.29610       43.23048      110.06073
H         60.06670       42.62020      108.95843
H         58.88041       41.33791      107.16026
H         57.29854       41.77450      107.88851
H         56.39588       40.06667      109.16376
H         57.38805       38.87308      110.01803
N         59.43992       43.99536      106.66324
C         59.22608       45.00532      105.63891
C         59.66666       46.40679      106.02283
O         60.11680       46.61115      107.14104
H         60.05495       43.20370      106.41927
H         58.14796       45.01653      105.37051
H         59.81294       44.70407      104.74249
N         59.61909       47.44384      105.13045
C         59.17180       47.30751      103.74311
C         60.34601       47.29525      102.78175
O         60.11929       46.96796      101.62481
C         58.16523       48.41731      103.33751
C         56.87949       48.40401      104.17299
O         58.76977       49.68886      103.36331
H         59.99037       48.35609      105.43703
H         58.66581       46.33344      103.59818
H         57.85106       48.22849      102.28667
H         58.84524       49.98152      104.30800
H         56.19015       49.19336      103.80135
H         56.37156       47.42144      104.07842
H         57.09881       48.59972      105.24325
N         61.61417       47.64041      103.16379
C         62.75203       47.63568      102.25206
C         63.86999       46.78222      102.86048
O         64.32122       47.13488      103.94210
C         63.25814       49.08961      102.01612
C         62.14468       50.05438      101.52158
C         64.45985       49.10488      101.05178
C         61.53515       49.71982      100.15521
H         61.79156       47.95518      104.12802
H         62.43235       47.25294      101.27315
H         63.60624       49.49734      102.99190
H         62.56832       51.08047      101.46072
H         61.32768       50.08507      102.27332
H         65.29669       48.50329      101.45940
H         64.18899       48.67662      100.06451
H         64.82812       50.14272      100.91091
H         62.30044       49.74926       99.35432
H         61.05237       48.72615      100.15456
H         60.75678       50.47280       99.91032
N         64.40927       45.67084      102.27198
C         63.94837       45.06311      101.03229
C         65.08683       44.37448      100.28898
O         65.71190       43.47224      100.82637
C         62.77129       44.10187      101.30854
C         63.10994       42.97544      102.24991
O         63.02434       41.81721      101.87463
O         63.47622       43.23497      103.52005
H         65.15564       45.17944      102.78893
H         63.57345       45.83856      100.34410
H         62.42465       43.68313      100.33777
H         61.92666       44.67349      101.74956
N         65.35068       44.73287       98.99761
C         66.30455       44.05644       98.12518
C         67.21547       45.07807       97.45616
O         66.68134       46.01496       96.88132
C         65.51095       43.34175       97.01224
C         64.54127       42.32520       97.56436
C         65.00537       41.18508       98.24282
C         63.15743       42.51006       97.39941
C         64.09792       40.24664       98.74459
C         62.25461       41.57237       97.90677
C         62.72400       40.44062       98.57733
H         64.77576       45.47286       98.56781
H         66.87943       43.28543       98.66984
H         66.20767       42.83048       96.31223
H         64.95249       44.10754       96.42856
H         66.06689       41.01930       98.37737
H         62.77552       43.38208       96.88314
H         64.45960       39.36770       99.26200
H         61.19070       41.72374       97.77831
H         62.02275       39.71394       98.96610
N         68.58071       44.95478       97.39499
C         69.39057       43.87763       97.94138
C         69.32611       43.78059       99.44606
O         69.12337       42.69497       99.96777
C         70.82313       44.24635       97.51892
C         70.58373       44.96364       96.21211
C         69.39094       45.83835       96.57734
H         69.09478       42.92082       97.45274
H         71.25178       45.00974       98.20852
H         71.52467       43.38593       97.47802
H         71.45703       45.51901       95.80950
H         70.25565       44.20857       95.46081
H         69.70022       46.71139       97.19384
H         68.88583       46.17488       95.64619
N         69.49700       44.89881      100.20688
C         69.53491       44.85575      101.65939
C         70.85812       44.21805      102.07726
O         71.88208       44.82259      101.78844
C         69.44077       46.28407      102.24645
C         68.10005       46.95931      101.90730
C         68.05574       48.36024      102.44525
O         67.91334       49.30495      101.68503
O         68.16647       48.58270      103.76865
H         69.60743       45.80587       99.72987
H         68.64075       44.31954      102.02078
H         70.27511       46.90559      101.85015
H         69.53881       46.22977      103.35349
H         67.26530       46.37641      102.34956
H         67.95270       46.99279      100.80642
N         70.98621       43.02076      102.72377
C         69.92188       42.11058      103.09510
H         68.91272       42.44345      102.81163
H         70.09851       41.13479      102.59461
H         69.94195       41.95322      104.19278
H         71.94199       42.70597      102.95437
Ca        63.35507       43.09580      111.80458
O         65.96372       44.35516      111.95443
H         65.95062       43.62816      111.28149
H         65.23942       44.96892      111.67144
O         62.71983       42.47434      109.09618
H         63.18523       43.12004      108.50788
H         63.25098       41.64185      109.02745
O         65.07002       40.55692      111.88530
H         64.78371       40.47089      110.94141
H         64.87912       39.67106      112.28389
O         61.64887       39.89319      111.73828
H         62.09486       39.06824      112.05585
H         61.77530       39.87840      110.75709

Ca 1.0



