%chk=apoCaM-CA-Ng.loop2.water3.frame158.chk
%nprocshared=20
%mem=10GB
%nosave
#b3lyp/svp scf=(tight,noincore,xqc) Test 
#IOP(5/87=12) Density=Current Pop=(MK,readradii) iop(6/33=2) iop(6/42=6)

apoCaM-CA-Ng.loop2.water3.frame158 

   -2  1 
C         69.72162       66.41153       26.21326
C         70.53457       67.12873       25.17302
O         71.73553       67.26903       25.35593
H         68.65106       66.35156       25.92322
H         70.10776       65.37778       26.33783
H         69.79527       66.94663       27.18291
N         69.94594       67.59968       24.03641
C         70.69454       68.25749       22.96733
C         71.25039       69.62862       23.37341
O         71.96284       70.20970       22.57211
C         69.78606       68.39486       21.72217
C         70.52633       68.87220       20.50303
O         71.45488       68.21944       20.05303
O         70.16152       70.01737       19.89601
H         68.93625       67.42948       23.90496
H         71.54023       67.58585       22.69622
H         68.94799       69.08911       21.95320
H         69.35324       67.40076       21.47537
N         70.94918       70.21568       24.57163
C         71.40716       71.52786       25.02853
C         72.90829       71.58785       25.27347
O         73.30154       71.51935       26.42788
C         70.90641       72.66564       24.12756
H         70.31902       69.72412       25.21956
H         70.93037       71.69180       26.02265
H         71.21125       73.64696       24.54965
H         71.30684       72.59107       23.09649
H         69.79841       72.63516       24.06690
N         73.80282       71.77807       24.26221
C         75.24324       71.88541       24.46526
C         75.99523       70.79269       23.72615
O         77.21673       70.85909       23.68496
C         75.72366       73.30668       24.09923
C         75.38584       73.73486       22.69940
O         75.83220       73.13026       21.73834
O         74.59786       74.80992       22.50366
H         73.46286       71.88956       23.29857
H         75.51526       71.75385       25.53478
H         76.82309       73.38258       24.25101
H         75.24463       74.01752       24.80768
N         75.35415       69.70131       23.20723
C         76.06740       68.57969       22.62538
C         77.03508       68.02906       23.64019
O         78.23038       68.02412       23.38237
H         74.33258       69.61376       23.28181
H         76.60417       68.91015       21.70995
H         75.34332       67.78505       22.33648
N         76.57803       67.57416       24.83904
C         77.45835       67.12790       25.90959
C         77.47822       65.62711       25.96712
O         76.45550       64.99896       25.72757
C         76.98350       67.66971       27.27380
C         77.00795       69.17166       27.34805
N         78.17389       69.85066       27.24621
O         75.96500       69.78099       27.52621
H         75.55835       67.54182       24.99995
H         78.50106       67.47291       25.73234
H         77.63753       67.27608       28.08355
H         75.94951       67.30377       27.46764
H         79.06590       69.35227       27.11602
H         78.18847       70.87831       27.31329
N         78.61812       64.98929       26.35344
C         78.70360       63.55195       26.51499
C         78.92309       63.19762       27.96235
O         79.06540       64.07929       28.80058
H         79.45305       65.54892       26.58839
H         79.52860       63.15160       25.88879
H         77.76067       63.06041       26.19346
N         78.90470       61.88957       28.33523
C         79.02860       61.45348       29.72586
C         77.85900       61.92025       30.61232
O         77.90549       61.65486       31.80467
C         79.19122       59.90708       29.80973
C         77.95664       59.11260       29.34445
O         80.34514       59.49469       29.11569
H         78.79879       61.18930       27.58698
H         79.96539       61.89305       30.13566
H         79.35113       59.63655       30.87590
H         80.14175       59.47251       28.14478
H         77.70639       59.31942       28.28343
H         78.15202       58.02471       29.44963
H         77.08195       59.36009       29.97608
N         76.78614       62.60677       30.10887
C         75.63559       63.04967       30.89839
C         75.55610       64.57450       30.93945
O         76.43997       65.23486       30.41111
C         74.31206       62.38751       30.38530
C         73.68474       62.94516       29.07070
C         74.44966       60.85940       30.33717
C         74.46747       62.77791       27.76629
H         76.76809       62.81981       29.11531
H         75.75678       62.71841       31.95299
H         73.54247       62.58346       31.16197
H         73.45043       64.02324       29.19406
H         72.71396       62.42095       28.93104
H         75.17713       60.55238       29.56169
H         74.79084       60.47442       31.32241
H         73.47016       60.39092       30.10481
H         75.35538       63.43250       27.73491
H         74.74705       61.71855       27.59251
H         73.82752       63.10578       26.92040
N         74.49753       65.20019       31.53887
C         74.32537       66.65039       31.56585
C         73.76308       67.13252       32.92473
O         73.46030       68.30989       33.05727
C         73.43964       67.02335       30.35499
C         73.42525       68.48854       30.00189
O         72.79046       68.85943       29.02774
O         74.13875       69.39003       30.70288
H         73.71463       64.62429       31.87462
H         75.30651       67.14710       31.39594
H         72.40858       66.64753       30.50835
H         73.85526       66.51404       29.45706
N         73.64174       66.28814       33.99586
C         73.16160       66.68956       35.32094
C         71.66442       67.00894       35.30019
O         70.90875       66.14626       34.87320
C         73.38959       65.52210       36.31186
C         73.04443       65.88461       37.73586
C         73.82288       66.81992       38.43977
C         71.95107       65.27976       38.37811
C         73.51096       67.14311       39.76381
C         71.63804       65.61157       39.69952
C         72.41835       66.54061       40.39266
H         73.96508       65.31650       33.89876
H         73.77483       67.54715       35.66650
H         74.45391       65.20056       36.29063
H         72.77962       64.65454       35.97412
H         74.67548       67.29139       37.96682
H         71.33662       64.55782       37.85500
H         74.11765       67.85908       40.30318
H         70.79117       65.14624       40.18675
H         72.17743       66.79193       41.41739
N         71.13781       68.17901       35.78895
C         69.71070       68.48904       35.83295
C         69.01918       68.28776       34.50514
O         67.97860       67.64769       34.45465
C         69.67691       69.97370       36.21916
C         70.87031       70.07324       37.13457
C         71.91408       69.25294       36.37757
H         69.23097       67.86992       36.62533
H         69.91111       70.61034       35.33553
H         68.70921       70.31296       36.64780
H         71.18917       71.10405       37.39674
H         70.60784       69.53132       38.07309
H         72.39998       69.82791       35.55938
H         72.66363       68.90690       37.11603
N         69.58821       68.78830       33.37664
C         69.03236       68.63465       32.03879
C         68.83108       67.16424       31.72714
O         67.71515       66.77948       31.40581
C         69.97612       69.28510       31.00407
C         70.07932       70.81048       31.19781
C         71.08973       71.41681       30.27077
O         72.14494       72.08165       30.77923
O         70.95864       71.32382       29.06088
H         70.49327       69.26962       33.48300
H         68.04593       69.14789       31.97922
H         69.60205       69.08556       29.97568
H         70.98057       68.82609       31.10863
H         70.38973       71.05703       32.23363
H         69.08727       71.27652       31.01844
N         69.86059       66.28013       31.84471
C         69.72275       64.85715       31.60667
H         68.69477       64.57614       31.29351
H         70.43067       64.54482       30.81157
H         69.96253       64.30575       32.54027
H         70.78329       66.62343       32.14672
Ca        74.44058       71.82398       29.02418
O         76.76910       73.11842       27.67221
H         77.07550       73.20522       28.60988
H         76.25054       73.94374       27.50110
O         75.75491       72.43426       31.61743
H         75.18270       73.15044       31.99146
H         75.38639       71.59793       31.99837
O         73.07430       74.53583       28.58849
H         73.87527       74.65847       28.01962
H         72.41377       74.09849       27.99446

Ca 1.0



