%chk=apoCaM-CA-Ng.loop4.water3.frame412.chk
%nprocshared=20
%mem=10GB
%nosave
#b3lyp/svp scf=(tight,noincore,xqc) Test 
#IOP(5/87=12) Density=Current Pop=(MK,readradii) iop(6/33=2) iop(6/42=6)

apoCaM-CA-Ng.loop4.water3.frame412 

   -3  1 
C         92.50688       64.35350        4.97675
C         93.04358       62.95977        5.08651
O         92.74415       62.15319        4.22880
H         91.90015       64.59565        5.87229
H         93.35304       65.06777        4.89430
H         91.87210       64.45665        4.06917
N         93.87737       62.62091        6.10788
C         94.53445       61.32615        6.26417
C         95.44899       60.98749        5.09630
O         94.99308       60.45287        4.10810
C         93.62937       60.16176        6.77291
C         92.19250       59.96263        6.29754
O         91.80591       59.64193        5.04100
O         91.31277       60.02499        7.14261
H         94.11831       63.35557        6.79125
H         95.24580       61.45528        7.11244
H         93.52572       60.34733        7.86757
H         94.19078       59.20609        6.68666
N         96.77605       61.31374        5.16268
C         97.82089       61.02282        4.17707
C         98.22557       59.55457        4.22834
O         99.33699       59.27381        4.65655
C         97.49024       61.48742        2.72539
C         98.71869       61.36678        1.77973
C         96.90546       62.90728        2.67563
C         99.87375       62.33366        2.07203
H         97.09224       61.84138        5.99126
H         98.70506       61.60222        4.52132
H         96.71005       60.81396        2.31552
H         98.38111       61.57584        0.74659
H         99.10899       60.32617        1.80107
H         96.70223       63.18947        1.62155
H         95.94282       62.95425        3.22438
H         97.59723       63.64840        3.12225
H         99.54378       63.38715        1.96282
H        100.29522       62.18365        3.08506
H        100.68744       62.16485        1.33590
N         97.38568       58.56257        3.81423
C         97.72767       57.14875        3.88500
C         98.95576       56.83730        3.01325
O         99.94856       56.43193        3.60133
C         96.49136       56.26928        3.59381
C         95.36703       56.54709        4.55883
O         94.28915       56.94711        4.14587
O         95.54068       56.35554        5.88008
H         96.46078       58.80977        3.45032
H         98.00059       56.91877        4.94190
H         96.76798       55.19605        3.67425
H         96.09928       56.47112        2.58962
N         99.05542       57.03566        1.65638
C         97.99481       57.47337        0.76053
C         97.09491       56.31050        0.37765
O         97.37856       55.19948        0.80689
H         99.97822       56.87654        1.22219
H         98.44255       57.85190       -0.18224
H         97.46418       58.31597        1.23501
N         95.96560       56.43159       -0.38538
C         95.45901       57.64143       -1.04278
C         95.31038       58.79906       -0.07807
O         94.98095       58.56310        1.07591
C         94.06806       57.36180       -1.65917
C         94.09729       56.27022       -2.68990
O         93.37385       55.14927       -2.50238
O         94.76507       56.39646       -3.70328
H         95.41610       55.56576       -0.50366
H         96.17297       57.92827       -1.84404
H         93.66271       58.27832       -2.13762
H         93.37169       57.06731       -0.84318
N         95.54008       60.09345       -0.44544
C         95.75473       60.56625       -1.80415
C         97.20971       60.74134       -2.12702
O         98.05826       60.34158       -1.34355
H         95.46951       60.82096        0.27607
H         95.27799       61.56677       -1.88260
H         95.25256       59.92930       -2.55918
N         97.56716       61.37006       -3.28271
C         98.95269       61.64216       -3.64248
C         99.27754       63.14038       -3.62617
O        100.45565       63.45517       -3.71791
C         99.33879       60.91480       -4.95377
C         98.42494       61.16174       -6.16562
C         98.31019       62.60913       -6.51200
N         99.40341       63.33828       -6.81858
O         97.21059       63.13459       -6.50436
H         96.81923       61.69836       -3.91311
H         99.62768       61.22384       -2.86382
H         99.30735       59.82004       -4.76299
H        100.38979       61.16994       -5.20901
H         97.41216       60.75247       -5.95720
H         98.83030       60.61352       -7.04255
H        100.34237       62.91630       -6.83375
H         99.30589       64.33659       -7.02061
N         98.32673       64.10952       -3.42739
C         98.66467       65.50721       -3.12306
C         98.15884       66.52696       -4.14074
O         98.40934       67.70628       -3.92019
C         98.12861       65.87682       -1.70307
C         98.73728       64.97322       -0.62104
C         96.59005       65.83987       -1.60862
H         97.33491       63.84373       -3.39815
H         99.76884       65.63732       -3.09873
H         98.44891       66.91835       -1.47475
H         99.84524       65.04438       -0.64195
H         98.38967       65.29460        0.38443
H         98.44087       63.91314       -0.77083
H         96.12999       66.51772       -2.35815
H         96.18952       64.81639       -1.75968
H         96.26890       66.18421       -0.60321
N         97.45177       66.18773       -5.25557
C         96.90068       67.17704       -6.17849
C         95.38266       67.07211       -6.28906
O         94.81797       67.85900       -7.03266
C         97.50459       67.03804       -7.59792
C         99.00895       67.15666       -7.66510
N         99.66035       68.21735       -7.13700
O         99.65010       66.29333       -8.24279
H         97.27722       65.19874       -5.44856
H         97.11963       68.20733       -5.82352
H         97.08984       67.85547       -8.22781
H         97.19146       66.06971       -8.04855
H         99.15242       68.97078       -6.65493
H        100.68748       68.27815       -7.20631
N         94.64586       66.14649       -5.59433
C         93.19870       66.01725       -5.79110
C         92.51959       65.15701       -4.73310
O         93.18483       64.40171       -4.04950
C         92.89667       65.49737       -7.22297
C         93.70784       64.26548       -7.60623
C         94.67587       64.36185       -8.62545
C         93.52387       63.02372       -6.97043
C         95.43990       63.25047       -8.99456
C         94.28675       61.91075       -7.34415
C         95.24662       62.01904       -8.35486
O         95.98339       60.94098       -8.69325
H         95.11283       65.53146       -4.91745
H         92.75192       67.02580       -5.64754
H         93.15164       66.31131       -7.93170
H         91.81117       65.30553       -7.35947
H         94.85015       65.30218       -9.13306
H         92.79327       62.90455       -6.18831
H         96.18591       63.34957       -9.77347
H         94.13479       60.96233       -6.84378
H         96.67294       60.98020       -9.37174
N         91.15987       65.26932       -4.56743
C         90.30680       64.59635       -3.57941
C         90.50559       65.07214       -2.13963
O         89.55132       65.57610       -1.56259
C         90.36206       63.05979       -3.66734
C         89.87168       62.54884       -5.02912
C         89.79867       61.04941       -5.04014
O         88.98175       60.40832       -4.18113
O         90.46151       60.40528       -5.83676
H         90.66565       65.90543       -5.21073
H         89.25439       64.87513       -3.82412
H         89.67728       62.65600       -2.88724
H         91.38366       62.68072       -3.45236
H         90.54736       62.90765       -5.83151
H         88.85279       62.94211       -5.23537
N         91.67827       64.89680       -1.47058
C         91.86230       65.19258       -0.05126
C         91.69198       66.67299        0.28578
O         91.68951       66.99267        1.46740
C         93.27464       64.74482        0.41976
C         93.66888       63.28246        0.10477
C         92.89488       62.24175        0.85672
O         91.68263       62.15727        0.75323
O         93.57752       61.35069        1.60109
H         92.45047       64.47220       -1.96982
H         91.09282       64.62123        0.51114
H         93.38504       64.91882        1.51349
H         94.01180       65.39245       -0.10148
H         94.73897       63.16584        0.36952
H         93.60082       63.05819       -0.97382
N         91.56602       67.63764       -0.67171
C         91.40791       69.03592       -0.33167
H         90.48103       69.18049        0.26341
H         92.28367       69.38675        0.25495
H         91.33393       69.64625       -1.25700
H         91.59649       67.39545       -1.67127
Ca        92.73688       59.80985        3.00690
O         91.51610       58.61911        0.47632
H         91.14899       57.75574        0.16006
H         91.61902       59.16400       -0.34381
O         89.57758       60.23538        2.79651
H         89.37786       61.07642        3.27866
H         90.23476       60.49889        2.10604
O         90.97761       57.10503        3.19525
H         90.72541       56.19090        2.91073
H         90.17566       57.45038        3.66221

Ca 1.0



