%chk=apoCaM-CA-Ng.loop1.water3.frame1212.chk
%nprocshared=20
%mem=10GB
%nosave
#b3lyp/svp scf=(tight,noincore,xqc) Test 
#IOP(5/87=12) Density=Current Pop=(MK,readradii) iop(6/33=2) iop(6/42=6)

apoCaM-CA-Ng.loop1.water3.frame1212 

   0  1 
C         35.89909       72.79179       94.36922
C         34.68285       72.46283       95.18134
O         33.59639       72.44569       94.61965
H         36.82136       72.75647       94.98525
H         35.99529       72.06306       93.53781
H         35.79465       73.81380       93.94631
N         34.78300       72.22148       96.52161
C         33.62424       71.94911       97.36463
C         33.37588       73.13431       98.27254
O         33.28380       73.00004       99.48510
C         33.74267       70.59137       98.09391
C         34.90922       70.48352       99.04127
O         36.05583       70.53967       98.62777
O         34.68957       70.27667      100.35368
H         35.70922       72.29454       96.96572
H         32.71237       71.87752       96.73810
H         33.82175       69.77928       97.33968
H         32.80250       70.42675       98.66580
N         33.21574       74.35390       97.69338
C         32.85046       75.56346       98.41307
C         31.48774       75.40090       99.06926
O         31.41340       75.62699      100.26878
C         32.86314       76.81457       97.49356
C         34.19095       77.03834       96.73614
C         35.41522       77.19368       97.65457
C         36.73891       77.26344       96.87425
N         36.81475       78.42037       95.98255
H         33.33375       74.40786       96.67271
H         33.59932       75.74795       99.21252
H         32.64650       77.71182       98.11485
H         32.06218       76.74426       96.73092
H         34.07224       77.95439       96.12020
H         34.37062       76.19598       96.03866
H         35.50595       76.30388       98.30936
H         35.29333       78.09323       98.29623
H         36.87052       76.32858       96.28391
H         37.57115       77.31954       97.61044
H         36.68215       79.30361       96.52577
H         37.75930       78.43527       95.53439
H         36.10030       78.35106       95.22384
N         30.35680       74.98486       98.41801
C         30.25072       74.56528       97.01697
C         29.97544       73.06733       96.94056
O         29.76467       72.43900       97.96931
C         29.22370       75.43326       96.26925
C         27.91739       75.53040       96.99531
O         27.18621       74.43133       97.24243
O         27.53689       76.61501       97.40238
H         29.50334       74.89918       98.99129
H         31.19449       74.70274       96.47821
H         29.06258       75.05276       95.23798
H         29.64199       76.46108       96.18648
N         30.09560       72.40147       95.75405
C         30.06222       70.94550       95.68144
C         28.68820       70.36683       95.89071
O         27.71835       71.08596       95.77312
H         30.33988       72.92933       94.90223
H         30.77002       70.53552       96.43218
H         30.40682       70.60553       94.68070
N         28.53972       69.04912       96.20089
C         27.24939       68.35684       96.30742
C         27.30851       67.06923       95.47502
O         28.38804       66.75304       94.99219
C         26.97366       68.06334       97.79283
C         26.79965       69.33426       98.59046
O         25.71387       70.12720       98.40881
O         27.59383       69.59455       99.47966
H         29.39718       68.50463       96.38514
H         26.43884       68.98840       95.91539
H         27.82579       67.47017       98.19437
H         26.05835       67.46703       97.94006
N         26.24921       66.24032       95.22135
C         24.84866       66.42632       95.56842
C         24.24566       67.58055       94.82058
O         24.51302       67.71565       93.63358
H         26.45262       65.38749       94.67519
H         24.66990       66.47399       96.65764
H         24.30135       65.52706       95.20984
N         23.35562       68.41861       95.42351
C         22.75916       69.53578       94.69583
C         23.83204       70.58123       94.44175
O         24.87275       70.51174       95.05709
C         21.57117       70.15234       95.48636
C         20.44263       69.13430       95.70667
O         21.05031       71.25226       94.78396
H         23.08838       68.24042       96.40379
H         22.36914       69.15618       93.72478
H         21.95269       70.48668       96.47833
H         20.50494       71.77673       95.42773
H         20.79301       68.25552       96.28490
H         19.61689       69.60772       96.28036
H         20.04041       68.78769       94.73120
N         23.66203       71.55904       93.51990
C         24.55984       72.69351       93.30875
C         24.31404       73.74834       94.43567
O         25.25570       73.67578       95.49194
C         26.07508       72.35183       93.08176
C         26.27821       71.23151       92.03329
C         26.87537       73.61946       92.70397
C         27.74185       70.78197       91.90680
H         22.81556       71.51883       92.93140
H         24.19356       73.13845       92.35646
H         26.48305       71.98608       94.03083
H         25.90343       71.55876       91.04058
H         25.70129       70.33708       92.34852
H         27.96060       73.41460       92.62725
H         26.51434       74.03546       91.73959
H         26.79392       74.39867       93.48569
H         28.39046       71.58875       91.51030
H         28.13444       70.45220       92.89300
H         27.81218       69.93036       91.19939
N         24.40906       75.08786       93.84112
C         24.16728       76.20582       94.76270
C         22.70326       76.61238       94.89551
O         22.47823       77.56073       95.63271
C         25.03360       77.40623       94.31088
C         24.69698       77.90224       92.90099
O         26.38901       77.03408       94.33864
H         23.87466       75.19775       92.95003
H         24.51844       75.94553       95.78668
H         24.85481       78.25760       95.01270
H         26.81615       77.51519       95.09337
H         25.33561       78.77627       92.65534
H         24.89532       77.11290       92.14558
H         23.63321       78.21136       92.83467
N         21.66198       76.00023       94.23934
C         20.28142       76.46710       94.39535
C         19.87935       76.24136       95.84471
O         19.66150       75.10258       96.23567
C         19.32774       75.77150       93.39048
C         17.92171       76.37470       93.42544
O         19.82822       75.92883       92.08486
H         21.84253       75.20765       93.61009
H         20.27887       77.55369       94.15069
H         19.24369       74.68634       93.64240
H         20.25991       75.07322       91.82323
H         17.46419       76.26748       94.43012
H         17.96191       77.45309       93.15712
H         17.27521       75.85678       92.68443
N         19.99111       77.27491       96.73003
C         20.04118       77.13812       98.18537
C         21.17991       76.21468       98.61801
O         21.72515       75.49115       97.79893
C         18.69056       76.74014       98.80768
C         17.62046       77.80433       98.50487
C         16.26115       77.54130       99.17229
C         16.32390       77.58455      100.70982
N         14.98584       77.47958      101.29073
H         20.19846       78.21419       96.35746
H         20.30650       78.14316       98.58587
H         18.83760       76.67572       99.90518
H         18.36074       75.74511       98.43980
H         17.46313       77.84733       97.40522
H         17.98372       78.80114       98.83986
H         15.85116       76.56516       98.83418
H         15.57163       78.34489       98.83238
H         16.78169       78.54509      101.03616
H         16.94789       76.74933      101.09283
H         14.39865       78.28939      100.98426
H         14.53312       76.58358      100.99827
H         15.06295       77.49800      102.33350
N         21.65346       76.25345       99.89502
C         22.77998       75.43325      100.34422
C         23.99009       75.57643       99.42379
O         24.44197       74.55113       98.93372
C         23.19268       75.73789      101.80247
C         22.09380       75.40051      102.81799
C         22.55955       75.71057      104.21223
O         21.95613       76.52303      104.89465
O         23.64630       75.09475      104.71686
H         21.22353       76.92279      100.54998
H         22.46844       74.36401      100.31231
H         23.48394       76.80106      101.91689
H         24.08343       75.11583      102.04690
H         21.84431       74.31954      102.75353
H         21.17604       75.98635      102.60276
N         24.58943       76.75811       99.09818
C         24.18590       78.08265       99.51703
H         23.28966       78.09470      100.15508
H         25.02197       78.55903      100.06957
H         23.96297       78.68985       98.61458
H         25.39947       76.71856       98.46839
Ca        25.55962       71.93854       97.01387
O         27.29593       72.86709       99.72654
H         28.20191       73.17071       99.98202
H         27.20014       71.99197      100.17554
O         22.84265       72.81164       97.07887
H         22.17971       73.24586       96.48672
H         22.47281       72.90677       97.99136
O         24.02950       71.66443      100.30884
H         23.89406       72.36353      100.99606
H         24.69232       71.04922      100.71195

Ca 1.0



