%chk=apoCaM-CA-Ng.loop2.water5.frame478.chk
%nprocshared=20
%mem=10GB
%nosave
#b3lyp/svp scf=(tight,noincore,xqc) Test 
#IOP(5/87=12) Density=Current Pop=(MK,readradii) iop(6/33=2) iop(6/42=6)

apoCaM-CA-Ng.loop2.water5.frame478 

   -2  1 
C         47.39654       69.08579       74.67329
C         47.99538       69.38003       73.32829
O         49.20623       69.52657       73.24254
H         46.29329       68.97496       74.61193
H         47.82434       68.14249       75.07256
H         47.62870       69.91515       75.37368
N         47.20379       69.47724       72.22282
C         47.73139       69.76162       70.89293
C         48.38516       71.13086       70.88364
O         47.71527       72.11046       71.18433
C         46.59288       69.70098       69.84817
C         47.05430       69.86695       68.42060
O         48.35616       70.03597       68.11578
O         46.23218       69.83304       67.51949
H         46.18788       69.33230       72.33344
H         48.46947       68.97040       70.63142
H         45.83879       70.48595       70.07703
H         46.09504       68.70962       69.92230
N         49.69529       71.27341       70.53182
C         50.35356       72.57496       70.49253
C         50.47469       73.18159       71.88330
O         50.13597       72.53266       72.86403
C         51.73937       72.44693       69.84563
H         50.22436       70.43442       70.24673
H         49.74470       73.25169       69.85194
H         51.63594       72.02682       68.82184
H         52.23075       73.43810       69.75426
H         52.39085       71.77569       70.44442
N         50.93973       74.45422       72.02666
C         51.05423       75.13975       73.31175
C         52.48538       75.57380       73.61798
O         52.68955       76.22420       74.63426
C         50.07373       76.33598       73.33494
C         50.33720       77.44248       72.34272
O         49.49304       78.49034       72.29646
O         51.29575       77.41511       71.58752
H         51.19003       74.97498       71.17345
H         50.74143       74.46695       74.14039
H         50.07321       76.78375       74.35236
H         49.05546       75.94193       73.13460
N         53.52838       75.25626       72.79490
C         54.89201       75.71614       73.00370
C         55.60473       75.16257       74.22569
O         56.76134       75.52166       74.39167
H         53.35849       74.70805       71.94029
H         54.89453       76.82703       73.04888
H         55.49815       75.41467       72.12127
N         55.02263       74.30604       75.11962
C         55.73263       73.78085       76.28767
C         55.74042       72.26158       76.28080
O         55.11042       71.65190       75.42858
C         55.08005       74.32064       77.57387
C         55.21635       75.82210       77.65535
N         54.12496       76.62114       77.67559
O         56.33073       76.32214       77.70510
H         54.04446       74.01521       74.99176
H         56.79798       74.10052       76.27732
H         55.57260       73.89024       78.47206
H         54.00966       74.01929       77.59347
H         53.17636       76.22335       77.63073
H         54.23047       77.64531       77.73032
N         56.49377       71.58744       77.19828
C         56.61119       70.13689       77.23630
C         56.34089       69.57945       78.61533
O         56.02922       70.32664       79.53220
H         57.06151       72.12910       77.86754
H         57.65988       69.87550       76.97850
H         55.94168       69.64537       76.49954
N         56.50978       68.24292       78.83536
C         56.42652       67.64241       80.16748
C         55.04755       67.74528       80.80635
O         54.96930       67.53556       82.01045
C         56.92404       66.17029       80.17858
C         56.07613       65.21838       79.31597
O         58.28079       66.10222       79.81104
H         56.79245       67.66319       78.03307
H         57.12206       68.22086       80.81696
H         56.86103       65.79724       81.22458
H         58.34873       66.22811       78.82965
H         55.02422       65.21884       79.65542
H         56.09860       65.50533       78.24482
H         56.46809       64.18364       79.40718
N         53.92361       68.04692       80.09222
C         52.62223       68.27097       80.72138
C         52.09957       69.64877       80.35922
O         52.68640       70.32190       79.52029
C         51.57326       67.14426       80.43420
C         51.04910       66.99853       78.97714
C         52.03800       65.79693       81.00768
C         52.00623       66.41235       77.93470
H         54.00619       68.16930       79.07696
H         52.74968       68.28580       81.82668
H         50.67182       67.41514       81.02640
H         50.66594       67.97697       78.61704
H         50.17989       66.30403       79.01564
H         51.23699       65.03427       80.90136
H         52.94516       65.43256       80.49385
H         52.26931       65.89946       82.08954
H         52.37286       65.41210       78.24399
H         51.45612       66.28631       76.97816
H         52.85861       67.07276       77.71898
N         50.99594       70.14160       80.98490
C         50.41942       71.44670       80.70061
C         50.46189       72.33096       81.95395
O         49.77846       73.34387       81.99550
C         48.98641       71.20849       80.17125
C         48.35572       72.40128       79.49932
O         47.11772       72.28410       78.98421
O         48.95987       73.45463       79.37003
H         50.53134       69.56691       81.70598
H         50.98541       71.96019       79.89239
H         48.33892       70.84274       80.99733
H         49.02794       70.41812       79.38936
N         51.29921       72.03793       82.99777
C         51.37548       72.84116       84.21482
C         50.10366       72.64130       85.03094
O         49.75823       71.49147       85.26688
C         52.57224       72.39525       85.08701
C         52.75426       73.33821       86.25473
C         53.31731       74.61197       86.05176
C         52.33939       72.96991       87.54502
C         53.46067       75.49979       87.12247
C         52.47300       73.86637       88.61047
C         53.03450       75.12887       88.40002
H         51.93673       71.23270       82.91883
H         51.55393       73.89985       83.92814
H         53.51727       72.37809       84.50119
H         52.38881       71.35614       85.43937
H         53.64380       74.91655       85.06488
H         51.89115       72.00051       87.72116
H         53.89633       76.47766       86.96064
H         52.13642       73.58418       89.59939
H         53.13738       75.82064       89.22624
N         49.37369       73.67464       85.54775
C         48.15649       73.49436       86.32907
C         47.09316       72.72190       85.57585
O         46.41404       71.88490       86.15257
C         47.65832       74.93394       86.54239
C         48.95075       75.70804       86.59663
C         49.72964       75.07543       85.44784
H         48.40631       73.01913       87.30458
H         47.12775       75.30170       85.63339
H         46.97925       75.05860       87.41289
H         48.84886       76.81213       86.53576
H         49.45684       75.44538       87.55483
H         49.41085       75.45657       84.45283
H         50.80092       75.28125       85.62111
N         46.87407       73.02561       84.26913
C         45.75746       72.53328       83.47439
C         45.80490       71.03570       83.18526
O         44.85025       70.54077       82.59995
C         45.72932       73.28426       82.12784
C         45.62676       74.81969       82.26705
C         45.73596       75.43095       80.90895
O         44.83507       76.11689       80.45580
O         46.83162       75.17551       80.17133
H         47.51389       73.70945       83.84360
H         44.81810       72.76202       84.02421
H         44.86953       72.93187       81.51687
H         46.66854       73.03006       81.59113
H         46.45436       75.24546       82.86751
H         44.66885       75.09591       82.75688
N         46.86585       70.24845       83.51925
C         46.89469       68.83676       83.19627
H         47.84684       68.38392       83.54459
H         46.04780       68.31421       83.69039
H         46.82024       68.69815       82.09573
H         47.68600       70.64727       83.99196
Ca        46.92235       75.59710       77.97111
O         47.48433       75.37260       75.17425
H         47.58845       74.58279       74.58697
H         46.93264       76.00587       74.65009
O         49.67767       76.43341       77.71542
H         49.63770       77.36196       77.37416
H         50.60730       76.14104       77.54492
O         45.40092       77.92931       77.09522
H         46.37448       78.11261       77.09239
H         45.19574       77.69030       78.03438
O         46.20032       72.54985       76.02480
H         46.40604       72.33550       75.08026
H         45.58741       71.82863       76.31528
O         44.25007       73.81711       78.42603
H         44.32904       73.02425       79.01338
H         43.61690       74.41257       78.89969

Ca 1.0



