%chk=apoCaM-CA-Ng.loop2.water4.frame1171.chk
%nprocshared=20
%mem=10GB
%nosave
#b3lyp/svp scf=(tight,noincore,xqc) Test 
#IOP(5/87=12) Density=Current Pop=(MK,readradii) iop(6/33=2) iop(6/42=6)

apoCaM-CA-Ng.loop2.water4.frame1171 

   -2  1 
C         93.92744       42.33362       28.50397
C         93.47360       41.18155       27.65079
O         93.95945       41.05976       26.53566
H         94.68645       42.94097       27.96501
H         93.07281       42.98912       28.76421
H         94.40004       41.94332       29.43017
N         92.58324       40.24589       28.08932
C         91.94161       40.24351       29.39837
C         90.45234       39.90569       29.23759
O         89.82227       40.50283       28.37670
C         92.76347       39.31187       30.32281
C         92.96407       37.92407       29.75103
O         91.92336       37.09808       29.53613
O         94.08937       37.54478       29.46812
H         92.40391       39.43883       27.47932
H         91.97888       41.25893       29.84369
H         92.32700       39.26366       31.34075
H         93.76965       39.77203       30.43756
N         89.82670       38.96359       30.01421
C         88.44986       38.47880       29.87227
C         88.24136       37.56792       28.66360
O         87.19759       36.93359       28.59202
C         87.41570       39.60966       29.92919
H         90.34871       38.53467       30.78765
H         88.26336       37.82165       30.75218
H         86.38945       39.18417       29.94749
H         87.56073       40.21067       30.85124
H         87.48745       40.27504       29.04559
N         89.18875       37.41836       27.69648
C         89.09437       36.45519       26.60415
C         89.35155       35.02919       27.09616
O         89.64926       34.83234       28.26651
C         90.01477       36.88913       25.41235
C         91.34948       37.57386       25.70784
O         92.37209       36.96338       26.34087
O         91.50798       38.72284       25.32726
H         90.03772       37.98268       27.75165
H         88.06010       36.44979       26.19100
H         89.42699       37.64929       24.85104
H         90.16567       36.03742       24.72240
N         89.29146       33.98367       26.21531
C         89.67677       32.60754       26.52796
C         91.05862       32.28865       25.89517
O         91.47620       33.35352       25.11233
H         89.05448       34.18019       25.23139
H         88.88185       31.91868       26.16916
H         89.78251       32.45163       27.62244
N         91.12300       31.03103       25.13155
C         92.52401       30.80084       24.68187
C         92.84184       31.65402       23.45597
O         91.92487       32.15058       22.81259
C         92.82918       29.32558       24.34063
C         92.74413       28.39195       25.52917
N         93.85763       27.79391       26.01298
O         91.66644       28.15551       26.05258
H         90.81761       30.29383       25.79761
H         93.21840       31.10382       25.50110
H         93.87123       29.28828       23.95381
H         92.16095       28.96558       23.52871
H         94.78197       27.97161       25.59437
H         93.79649       27.15638       26.82046
N         94.13622       31.93158       23.11845
C         94.46075       32.86411       22.04915
C         94.11647       32.32341       20.67114
O         93.82144       31.14201       20.56081
H         94.90386       31.55265       23.69364
H         95.54680       33.10314       22.06084
H         93.89654       33.79744       22.26134
N         94.09982       33.11050       19.55084
C         94.30793       34.55833       19.54979
C         92.98287       35.25393       19.26187
O         92.02285       34.59331       18.88794
C         95.44613       34.97198       18.58053
C         95.13459       34.68367       17.10748
O         95.71101       36.34621       18.72167
H         93.83212       32.66254       18.66109
H         94.62277       34.89293       20.55598
H         96.35008       34.38039       18.86609
H         96.69180       36.45808       18.82901
H         94.96867       33.60167       16.93466
H         94.23596       35.24881       16.77983
H         95.99342       35.00041       16.47809
N         92.84191       36.58426       19.51127
C         91.58069       37.31181       19.40632
C         91.77602       38.51587       18.48786
O         92.69922       39.27835       18.74168
C         91.13781       37.73899       20.83258
C         90.91229       36.51652       21.76302
C         89.88430       38.62771       20.81177
C         89.77483       35.56381       21.35851
H         93.65451       37.10228       19.87908
H         90.77246       36.67143       19.03252
H         91.95433       38.34668       21.28325
H         90.68353       36.91131       22.76661
H         91.84978       35.92711       21.84675
H         90.09522       39.55472       20.24767
H         89.02150       38.11619       20.33969
H         89.60292       38.92269       21.84488
H         89.96189       35.08953       20.37583
H         89.69389       34.74975       22.10925
H         88.79781       36.08695       21.32576
N         90.94578       38.82939       17.44374
C         89.73602       38.08839       17.07949
C         88.80231       38.89888       16.18230
O         89.23341       39.83402       15.52455
C         90.06563       36.73751       16.37908
C         90.85525       36.86599       15.09684
O         91.13895       35.85913       14.46812
O         91.26957       38.06283       14.63730
H         91.14982       39.71103       16.94951
H         89.15933       37.91696       18.01084
H         89.11220       36.21292       16.15194
H         90.65250       36.07018       17.03264
N         87.48496       38.54397       16.09772
C         86.55667       39.11523       15.12963
C         85.36566       39.81246       15.79438
O         84.67277       39.15913       16.55871
C         85.99455       37.95566       14.27378
C         85.03985       38.46450       13.22150
C         83.65888       38.22459       13.33565
C         85.52155       39.20659       12.13246
C         82.77558       38.73349       12.37959
C         84.63620       39.70524       11.17369
C         83.26395       39.47260       11.29899
H         87.13882       37.78631       16.70557
H         87.09302       39.80842       14.45681
H         85.46439       37.25191       14.95540
H         86.81058       37.37978       13.78643
H         83.26318       37.66378       14.17377
H         86.58225       39.39877       12.02934
H         81.71200       38.55913       12.47950
H         85.01465       40.27644       10.33659
H         82.57914       39.86653       10.55986
N         84.97761       41.09002       15.45471
C         85.68380       41.98188       14.54496
C         86.93760       42.57466       15.16268
O         87.75323       43.13299       14.44627
C         84.67511       43.10883       14.27171
C         83.34640       42.40643       14.49935
C         83.66573       41.61670       15.76303
H         85.88045       41.43434       13.60135
H         84.74763       43.88238       15.07263
H         84.80250       43.61472       13.29084
H         82.47512       43.08890       14.58998
H         83.16919       41.69155       13.66311
H         83.75219       42.31754       16.62423
H         82.90030       40.84176       15.98041
N         87.08612       42.57697       16.52019
C         88.19335       43.21225       17.22100
C         88.15734       44.71716       16.95851
O         87.14136       45.31549       17.28587
C         88.05198       42.97597       18.74463
C         88.13098       41.48701       19.11873
C         87.88615       41.29876       20.58866
O         86.95262       40.61046       20.97078
O         88.69494       41.88270       21.49301
H         86.34898       42.14459       17.09050
H         89.13018       42.72926       16.90190
H         87.07496       43.38648       19.08767
H         88.86418       43.51760       19.27878
H         89.13261       41.09609       18.84585
H         87.37412       40.89445       18.56369
N         89.16838       45.44039       16.38804
C         90.44880       44.94345       15.92360
H         91.25998       45.46299       16.47522
H         90.59949       43.86185       16.04902
H         90.55404       45.17351       14.84284
H         89.01722       46.45463       16.26946
Ca        92.14877       34.81091       26.65883
O         91.50997       33.02621       30.09131
H         91.82859       33.07845       31.02735
H         91.35399       32.06077       29.93594
O         94.14802       32.23869       28.08816
H         94.76573       31.68734       27.54508
H         93.41611       31.61956       28.33519
O         94.31749       34.73668       30.69312
H         95.30565       34.71941       30.75301
H         94.04205       35.43176       31.34253
O         95.25651       35.10441       26.57236
H         95.00161       34.47308       25.85307
H         95.72419       34.54358       27.24102

Ca 1.0



