%chk=apoCaM-CA-Ng.loop3.water2.frame717.chk
%nprocshared=20
%mem=10GB
%nosave
#b3lyp/svp scf=(tight,noincore,xqc) Test 
#IOP(5/87=12) Density=Current Pop=(MK,readradii) iop(6/33=2) iop(6/42=6)

apoCaM-CA-Ng.loop3.water2.frame717 

   0  1 
C         73.22410       78.27427      -13.39115
C         73.48908       76.89613      -13.91377
O         73.75284       76.74395      -15.09627
H         72.20738       78.32218      -12.95168
H         73.97426       78.51394      -12.60656
H         73.31122       79.02768      -14.20248
N         73.47296       75.83802      -13.06041
C         73.84936       74.48938      -13.45923
C         72.87388       73.90563      -14.47806
O         71.68750       73.81316      -14.19662
C         73.97115       73.59797      -12.20817
C         74.68509       72.30570      -12.47601
O         74.80327       71.48721      -11.58014
O         75.22093       72.04247      -13.68087
H         73.25965       76.02354      -12.06754
H         74.85686       74.55134      -13.90529
H         72.95644       73.41001      -11.79958
H         74.56386       74.11854      -11.42754
N         73.32976       73.49335      -15.69474
C         72.48975       72.95634      -16.76159
C         71.75023       71.69219      -16.33398
O         70.55699       71.60391      -16.58632
C         73.30961       72.77847      -18.07136
C         74.45473       71.74918      -18.02997
C         75.28256       71.80784      -19.32758
C         76.43683       70.79596      -19.30481
N         77.25096       70.89345      -20.51748
H         74.33404       73.58673      -15.87893
H         71.72701       73.72538      -17.02116
H         73.74422       73.77450      -18.31608
H         72.62000       72.50572      -18.90096
H         74.02888       70.73268      -17.90160
H         75.13656       71.96314      -17.18141
H         75.70922       72.82955      -19.43876
H         74.62981       71.60046      -20.20383
H         76.02514       69.76611      -19.21867
H         77.08259       70.99400      -18.42264
H         77.67345       71.84718      -20.59285
H         78.02291       70.18944      -20.46927
H         76.66825       70.69981      -21.36389
N         72.38286       70.69574      -15.64854
C         71.73005       69.45881      -15.20244
C         71.66854       69.33972      -13.67112
O         71.18460       68.32596      -13.18719
C         72.40234       68.24452      -15.89313
C         73.89224       68.21827      -15.71595
O         74.62067       68.41687      -16.67530
O         74.43424       68.11732      -14.49569
H         73.37901       70.82505      -15.41808
H         70.66663       69.43521      -15.52809
H         72.19413       68.33675      -16.98224
H         71.95408       67.29053      -15.54403
N         72.03530       70.36811      -12.85022
C         71.83075       70.38146      -11.40311
C         72.75138       69.50094      -10.57294
O         72.64279       69.58335       -9.35654
H         72.36308       71.24540      -13.27154
H         70.76892       70.14140      -11.17467
H         72.00638       71.41751      -11.04565
N         73.66081       68.63961      -11.11345
C         74.53498       67.78523      -10.30419
C         75.98734       67.85448      -10.76157
O         76.29351       68.52684      -11.73523
C         74.02007       66.33304      -10.39601
C         72.69647       66.17943       -9.69050
N         72.61106       66.36521       -8.35053
O         71.70038       65.86829      -10.32519
H         73.69894       68.53290      -12.13450
H         74.52917       68.10171       -9.23859
H         74.71883       65.62072       -9.91199
H         73.93222       66.04844      -11.46857
H         73.44641       66.60713       -7.79663
H         71.71271       66.25290       -7.85870
N         76.94223       67.13975      -10.09599
C         78.32727       67.03739      -10.52663
C         79.06466       68.35507      -10.46246
O         79.19888       68.91958       -9.38733
H         76.66590       66.58652       -9.27078
H         78.34412       66.62071      -11.55770
H         78.86355       66.31760       -9.87177
N         79.57458       68.89305      -11.60306
C         80.30479       70.15547      -11.68162
C         79.43606       71.18303      -12.38087
O         78.28221       70.89494      -12.65150
C         81.64770       69.91080      -12.41123
C         82.65274       69.23239      -11.51155
C         83.20204       69.94727      -10.43112
C         83.07694       67.91519      -11.74616
C         84.16064       69.35859       -9.60356
C         84.02947       67.32232      -10.90724
C         84.57723       68.04165       -9.83794
O         85.50355       67.46162       -9.04774
H         79.40282       68.39957      -12.49267
H         80.50098       70.58809      -10.67640
H         82.12735       70.85708      -12.73510
H         81.45237       69.32406      -13.33582
H         82.90071       70.97040      -10.24081
H         82.66947       67.34632      -12.57183
H         84.58154       69.92915       -8.78454
H         84.34751       66.30409      -11.09142
H         85.91289       67.92998       -8.30561
N         79.91794       72.44338      -12.61840
C         79.13032       73.57178      -13.11430
C         78.55340       73.31158      -14.50554
O         77.84962       72.32808      -14.68818
C         78.02484       73.96817      -12.08973
C         77.30236       75.28411      -12.48706
C         78.57788       74.07325      -10.65398
C         78.17228       76.54527      -12.51330
H         80.89451       72.64931      -12.36703
H         79.82607       74.43443      -13.17651
H         77.26180       73.16344      -12.06957
H         76.47294       75.46398      -11.77051
H         76.87022       75.16771      -13.49602
H         77.76346       74.34597       -9.94915
H         78.98717       73.09843      -10.31531
H         79.38905       74.82591      -10.58378
H         78.97836       76.46898      -13.26889
H         77.53831       77.41326      -12.79100
H         78.61412       76.75250      -11.51825
N         78.75465       74.18922      -15.52966
C         78.20052       73.98744      -16.86882
C         79.24432       74.06417      -17.97095
O         78.89231       73.81692      -19.11314
C         77.15916       75.07194      -17.16282
O         76.17902       75.07641      -16.17247
H         79.26859       75.06142      -15.32943
H         77.70373       72.99296      -16.93628
H         76.69096       74.86901      -18.15437
H         77.65728       76.06706      -17.17964
H         75.46875       75.67890      -16.51027
N         80.51895       74.49453      -17.73046
C         81.46038       74.75797      -18.81405
C         81.88696       73.45858      -19.49616
O         81.60205       72.40623      -18.93799
C         82.66211       75.51586      -18.22513
H         80.80429       74.73256      -16.77412
H         80.94789       75.43300      -19.52089
H         83.18887       74.88581      -17.47847
H         83.39062       75.84655      -18.97629
H         82.29556       76.43487      -17.71712
N         82.59089       73.38476      -20.66948
C         82.94998       74.49419      -21.56078
C         83.97542       74.04027      -22.59890
O         83.89155       72.90128      -23.03749
C         81.72660       75.04237      -22.30728
H         82.88311       72.43466      -20.94610
H         83.38668       75.29542      -20.97542
H         82.03363       75.88152      -22.96769
H         81.26714       74.24966      -22.93317
H         80.95256       75.43766      -21.63043
N         84.95185       74.85064      -23.11110
C         85.16703       76.26404      -22.80155
C         85.52674       76.47020      -21.34378
O         84.87246       77.26736      -20.68444
C         86.26027       76.83270      -23.73588
C         86.45462       78.34736      -23.57382
C         87.40548       78.87357      -24.61158
O         88.67164       78.41819      -24.66678
O         87.03246       79.71537      -25.41357
H         85.56893       74.42414      -23.82191
H         84.23580       76.82673      -23.03453
H         85.93466       76.64292      -24.78378
H         87.22648       76.30607      -23.57141
H         86.85442       78.57737      -22.56347
H         85.47310       78.85773      -23.69125
N         86.52964       75.76209      -20.76001
C         86.83671       75.90156      -19.35264
H         87.14934       76.94363      -19.13130
H         85.94062       75.64964      -18.74417
H         87.65657       75.20843      -19.07114
H         87.06587       75.08134      -21.31819
Ca        75.69400       69.90678      -14.09406
O         77.41763       67.38906      -14.75401
H         77.02850       66.54920      -14.40342
H         78.39352       67.28790      -14.62246
O         78.20233       69.88653      -16.23555
H         78.22085       69.14657      -16.89291
H         79.06587       70.35415      -16.36166

Ca 1.0



