%chk=apoCaM-CA-Ng.loop2.water4.frame1085.chk
%nprocshared=20
%mem=10GB
%nosave
#b3lyp/svp scf=(tight,noincore,xqc) Test 
#IOP(5/87=12) Density=Current Pop=(MK,readradii) iop(6/33=2) iop(6/42=6)

apoCaM-CA-Ng.loop2.water4.frame1085 

   -2  1 
C         31.97383       75.45076       51.57589
C         31.53416       75.90506       50.20514
O         32.19409       75.50716       49.25623
H         33.00233       75.81761       51.77148
H         31.33371       75.76028       52.41655
H         31.98559       74.34021       51.59012
N         30.44556       76.69368       49.95367
C         29.56472       77.30954       50.94137
C         29.45866       78.81313       50.66580
O         30.48680       79.42332       50.41031
C         28.21760       76.54089       50.98906
C         27.47225       76.53563       49.67947
O         27.95554       75.99091       48.70227
O         26.24866       77.09040       49.58979
H         30.23028       76.87467       48.96563
H         29.99927       77.23807       51.94947
H         27.57322       76.96321       51.78767
H         28.41377       75.48359       51.26940
N         28.26786       79.48338       50.73334
C         28.07457       80.90498       50.46697
C         28.32917       81.22917       49.00580
O         29.03139       82.18260       48.69737
C         28.87328       81.78424       51.44471
H         27.41479       78.97644       50.99673
H         26.99693       81.12433       50.64094
H         28.60649       81.52547       52.49129
H         29.96695       81.65299       51.31520
H         28.63437       82.85628       51.27916
N         27.76381       80.44668       48.04434
C         27.88368       80.68940       46.61237
C         26.51959       80.49766       45.95244
O         25.88045       79.47954       46.17745
C         28.98312       79.78408       46.00282
C         28.71460       78.31830       46.15779
O         29.46432       77.61655       46.81125
O         27.62981       77.78308       45.58258
H         27.25214       79.60262       48.34551
H         28.24220       81.72475       46.41870
H         29.94620       80.03150       46.50424
H         29.09697       80.01495       44.92153
N         26.00090       81.43597       45.11636
C         24.72357       81.26306       44.43458
C         24.71105       80.18521       43.34832
O         23.67350       80.03969       42.71888
H         26.51672       82.31573       44.96663
H         24.46598       82.22035       43.93418
H         23.93045       81.05225       45.18647
N         25.79405       79.40229       43.05779
C         25.82588       78.40092       41.98582
C         25.93393       76.99973       42.56484
O         25.93288       76.84369       43.77323
C         27.06564       78.67466       41.09420
C         27.02401       79.98151       40.34761
N         28.17475       80.52977       39.89282
O         25.95812       80.53598       40.12381
H         26.65668       79.50836       43.60760
H         24.90109       78.42353       41.36955
H         27.22086       77.88841       40.32719
H         27.96679       78.65750       41.74682
H         29.08285       80.08035       40.08492
H         28.16292       81.41462       39.36531
N         26.06109       75.92576       41.73541
C         26.33092       74.57081       42.18738
C         25.35815       73.57246       41.59841
O         24.36338       73.98122       41.01604
H         26.04560       76.07659       40.71647
H         26.35142       74.48085       43.29568
H         27.33820       74.31936       41.80083
N         25.58869       72.22628       41.64537
C         26.78391       71.61859       42.22245
C         27.84724       71.45981       41.14606
O         27.61782       70.77671       40.15767
C         26.43101       70.27187       42.89053
C         27.67337       69.59208       43.48575
O         25.49452       70.50804       43.91034
H         24.92755       71.60943       41.14661
H         27.18265       72.26774       43.03125
H         25.98646       69.59950       42.11953
H         25.08895       69.63145       44.13939
H         28.15195       70.24839       44.24319
H         27.38592       68.63467       43.96837
H         28.41367       69.35974       42.69072
N         29.04788       72.08868       41.29382
C         30.14079       72.01528       40.32651
C         30.70150       70.58962       40.31353
O         31.16014       70.15908       41.36254
C         31.25964       73.04311       40.70577
C         30.69163       74.49216       40.65970
C         32.47576       72.91679       39.76487
C         31.66573       75.55660       41.16563
H         29.18497       72.65400       42.14431
H         29.76482       72.34055       39.34025
H         31.60235       72.81873       41.74101
H         29.79453       74.57475       41.30414
H         30.37778       74.74079       39.62245
H         33.29591       73.59496       40.07022
H         32.90329       71.89393       39.80481
H         32.18511       73.15167       38.71906
H         32.57091       75.62496       40.53166
H         31.16591       76.54790       41.14172
H         31.96202       75.33360       42.21252
N         30.75353       69.78417       39.20634
C         30.22572       70.11783       37.88524
C         31.26789       70.80155       37.01128
O         32.42936       70.87086       37.38916
C         29.58674       68.87270       37.22310
C         30.52990       67.73387       36.91313
O         30.08293       66.70876       36.42385
O         31.85186       67.82036       37.15887
H         31.20420       68.86390       39.32532
H         29.38407       70.82342       37.99913
H         29.09302       69.17244       36.27441
H         28.79838       68.49015       37.90845
N         30.88601       71.38709       35.83989
C         31.78178       72.14248       34.96223
C         30.97367       72.76179       33.82951
O         30.31083       71.99715       33.13749
C         32.88940       71.23990       34.35515
C         33.83519       72.05790       33.49939
C         33.53699       72.32659       32.14971
C         35.00618       72.59609       34.05927
C         34.39086       73.12374       31.38148
C         35.85599       73.39495       33.28734
C         35.54744       73.66066       31.95076
H         29.88562       71.33378       35.59115
H         32.28121       72.93338       35.55861
H         32.45830       70.40634       33.75690
H         33.47571       70.76206       35.16614
H         32.64094       71.92688       31.69245
H         35.25248       72.41049       35.09696
H         34.15137       73.33209       30.34633
H         36.75088       73.81452       33.72785
H         36.20311       74.28446       31.35684
N         31.00395       74.09678       33.50613
C         31.83438       75.13480       34.12320
C         31.43460       75.52614       35.53868
O         30.56353       74.89414       36.11795
C         31.67817       76.33192       33.17238
C         31.41053       75.65697       31.84468
C         30.41539       74.59379       32.27925
H         32.89434       74.79883       34.09017
H         30.74994       76.88546       33.41536
H         32.52734       77.04818       33.18626
H         31.03835       76.33494       31.04838
H         32.34552       75.16158       31.49945
H         29.43792       75.06873       32.52184
H         30.27534       73.82344       31.49033
N         32.05748       76.57814       36.15514
C         31.79333       76.98071       37.53533
C         32.86213       77.96257       38.04133
O         32.52396       79.05213       38.47876
C         30.33456       77.51455       37.73118
C         29.94754       78.82168       36.99667
C         29.94673       78.69545       35.50640
O         29.17846       77.92029       34.96123
O         30.75776       79.47143       34.76103
H         32.78483       77.08386       35.62840
H         31.89884       76.07908       38.17434
H         30.19487       77.70097       38.81859
H         29.60171       76.72923       37.45464
H         30.60838       79.65890       37.28840
H         28.91958       79.10949       37.30674
N         34.19121       77.65378       38.07157
C         34.75325       76.39118       37.64163
H         35.85033       76.39667       37.81518
H         34.30773       75.55595       38.21994
H         34.59726       76.23214       36.55790
H         34.84655       78.35731       38.44805
Ca        26.68134       75.85681       46.23555
O         23.93146       74.81046       45.06535
H         23.99210       73.82963       45.18230
H         23.44209       74.92982       44.21306
O         24.01076       75.34209       48.45084
H         23.54027       76.06781       48.93330
H         24.25174       74.69078       49.15671
O         23.39201       77.66773       46.15547
H         22.55637       77.13984       46.09671
H         23.08861       78.59297       46.33460
O         26.84902       73.06685       46.43489
H         26.99053       73.48709       47.32091
H         25.89987       72.78733       46.44526

Ca 1.0



