%chk=apoCaM-CA-Ng.loop1.water3.frame242.chk
%nprocshared=20
%mem=10GB
%nosave
#b3lyp/svp scf=(tight,noincore,xqc) Test 
#IOP(5/87=12) Density=Current Pop=(MK,readradii) iop(6/33=2) iop(6/42=6)

apoCaM-CA-Ng.loop1.water3.frame242 

   0  1 
C         37.13415       21.66526      113.10742
C         36.57342       20.27525      113.22160
O         35.50642       20.10626      113.79330
H         38.09321       21.67224      112.54510
H         36.41402       22.30987      112.56022
H         37.31432       22.08739      114.11638
N         37.23517       19.22722      112.66248
C         36.71294       17.86478      112.63341
C         36.88072       17.12849      113.96674
O         36.58873       15.94467      113.99145
C         37.43677       17.04635      111.53001
C         37.29904       17.64621      110.15087
O         36.71507       17.03193      109.27597
O         37.84829       18.83905      109.85405
H         38.11650       19.42831      112.16760
H         35.63807       17.88458      112.34330
H         36.98640       16.02957      111.49917
H         38.51659       16.93754      111.76922
N         37.38204       17.71166      115.09674
C         37.77498       16.92995      116.27256
C         37.00329       17.30659      117.52803
O         36.87060       18.49739      117.77408
C         39.26231       17.18094      116.56098
C         40.17061       16.84527      115.37007
C         41.66113       16.94963      115.72985
C         42.06945       18.33729      116.25548
N         43.50471       18.39200      116.52195
H         37.58656       18.72033      115.10845
H         37.66820       15.85587      116.07196
H         39.56913       16.56233      117.43018
H         39.39001       18.25084      116.82953
H         39.94249       17.52946      114.52361
H         39.97349       15.80232      115.03697
H         42.24813       16.71603      114.81542
H         41.90160       16.18644      116.50212
H         41.53483       18.55695      117.20460
H         41.80122       19.11673      115.50871
H         43.74263       19.33302      116.91094
H         43.76786       17.66101      117.22258
H         44.03871       18.24395      115.63555
N         36.56275       16.39736      118.46085
C         36.64594       14.93208      118.40166
C         38.08412       14.43808      118.24741
O         38.42796       13.89215      117.20863
C         35.62765       14.35398      117.39478
C         34.21224       14.68349      117.81733
O         33.99222       15.42369      118.92677
O         33.26818       14.27086      117.16445
H         36.14020       16.78677      119.31860
H         36.29096       14.50919      119.36633
H         35.72336       13.24717      117.39369
H         35.80289       14.72418      116.36742
N         38.99145       14.54698      119.26282
C         38.59883       14.99024      120.59069
C         39.69634       14.91659      121.63196
O         40.84636       14.68165      121.28992
H         39.95313       14.21334      119.09570
H         37.81653       14.27939      120.93066
H         38.19650       16.02446      120.56084
N         39.41528       15.03580      122.96449
C         38.06579       15.22435      123.50249
C         37.53623       13.91129      124.05540
O         38.27639       12.93849      124.12517
C         38.00573       16.39493      124.51354
C         38.86778       16.22228      125.73824
O         38.29844       16.17119      126.95742
O         40.08395       16.18336      125.64525
H         40.19052       14.87991      123.62507
H         37.36171       15.49866      122.69431
H         36.95205       16.52007      124.84396
H         38.30482       17.33585      124.00317
N         36.22481       13.79746      124.41369
C         35.64190       12.55853      124.90423
C         35.54902       11.44226      123.87242
O         35.14294       10.35780      124.26343
H         35.61465       14.62662      124.35686
H         34.60661       12.75662      125.25689
H         36.23711       12.21092      125.77618
N         35.87465       11.61311      122.55451
C         35.80704       10.53444      121.56427
C         37.19892       10.24842      121.01867
O         38.13510       10.97237      121.32861
C         34.78284       10.91059      120.45434
C         33.35692       10.90587      121.01462
O         34.82569        9.99500      119.39155
H         36.18487       12.53737      122.22206
H         35.47999        9.58318      122.03819
H         35.04449       11.92824      120.07568
H         34.53179       10.47940      118.57507
H         32.63520       11.18468      120.21759
H         33.09917        9.88289      121.36995
H         33.25135       11.61705      121.85806
N         37.40521        9.14818      120.23583
C         38.71267        8.74865      119.72059
C         38.77376        8.82168      118.19984
O         39.86151        8.65635      117.66262
C         39.09001        7.32287      120.23335
C         38.08637        6.23874      119.74033
C         39.19859        7.33391      121.76955
C         38.51702        4.80578      120.05722
H         36.60004        8.54634      120.02129
H         39.48807        9.46144      120.07799
H         40.09585        7.07708      119.82532
H         37.99003        6.30425      118.63568
H         37.08222        6.40036      120.18537
H         39.92860        8.10523      122.09411
H         38.21460        7.55807      122.23469
H         39.55962        6.36078      122.15732
H         37.76767        4.09891      119.64071
H         39.50187        4.58925      119.59285
H         38.57302        4.62649      121.14931
N         37.66481        9.05197      117.43871
C         37.68747        9.16827      115.98714
C         37.05273       10.47785      115.55705
O         36.10118       10.92771      116.18225
C         36.99909        7.96002      115.31209
C         35.53085        7.77138      115.70966
O         37.71688        6.79576      115.63338
H         36.74782        9.13792      117.89255
H         38.73477        9.15587      115.60936
H         37.04930        8.13553      114.20970
H         37.59935        6.16235      114.87755
H         35.43934        7.56317      116.79585
H         34.93147        8.66833      115.45283
H         35.10951        6.90568      115.15627
N         37.52548       11.12957      114.46119
C         36.97218       12.38763      113.96029
C         35.49944       12.25389      113.55263
O         34.92617       11.17831      113.65311
C         37.84559       12.92034      112.78485
C         37.80732       12.02371      111.53775
O         39.17182       13.06168      113.22781
H         38.33338       10.71222      113.97564
H         37.03139       13.14170      114.77575
H         37.46663       13.92004      112.48950
H         39.60300       13.74521      112.65031
H         38.42454       12.48037      110.73540
H         38.20741       11.01176      111.74830
H         36.76989       11.92522      111.15622
N         34.84371       13.33146      113.03771
C         33.47896       13.30803      112.52697
C         32.67610       14.54409      112.94522
O         31.51730       14.63207      112.56229
C         33.53098       13.07243      111.00006
C         34.45049       14.03027      110.22041
C         34.64488       13.53058      108.78123
C         35.69657       14.36577      108.04244
N         35.96987       13.81853      106.71500
H         35.37948       14.18968      112.88326
H         32.92677       12.43508      112.94125
H         32.50690       13.07332      110.56663
H         33.94486       12.04728      110.87007
H         35.45732       14.02802      110.68380
H         34.05191       15.06738      110.24287
H         33.67893       13.55041      108.23202
H         35.01324       12.48105      108.81840
H         36.64482       14.36259      108.62780
H         35.33353       15.41059      107.94541
H         36.70329       14.40227      106.25135
H         36.32706       12.83846      106.79796
H         35.10159       13.83231      106.13339
N         33.18907       15.50368      113.77573
C         32.41520       16.63152      114.28544
C         31.95746       17.54182      113.16123
O         32.79383       18.10707      112.46978
C         33.26794       17.42260      115.31216
C         32.57714       18.62002      115.98924
C         31.37680       18.24209      116.81445
O         30.37853       17.77777      116.28886
O         31.38131       18.46242      118.14236
H         34.14758       15.40467      114.12725
H         31.53719       16.21060      114.81678
H         34.17807       17.80399      114.80017
H         33.60476       16.72866      116.10829
H         32.28296       19.37806      115.23373
H         33.32709       19.08890      116.66442
N         30.62602       17.73669      112.94073
C         30.09955       18.62058      111.92029
H         29.45998       19.39129      112.40078
H         30.89980       19.13835      111.35146
H         29.47959       18.03587      111.20928
H         29.94000       17.23977      113.52836
Ca        32.01713       16.10260      119.76684
O         30.58280       13.93851      118.63850
H         30.58356       14.55719      117.86475
H         29.81655       13.33492      118.47664
O         29.16784       16.42600      120.64180
H         29.14627       17.41570      120.66458
H         28.50069       16.17764      119.95380
O         31.44179       14.07706      121.94859
H         31.08446       14.77150      122.55750
H         30.99773       13.24038      122.23603

Ca 1.0



