%chk=apoCaM-CA-Ng.loop1.water1.frame841.chk
%nprocshared=20
%mem=10GB
%nosave
#b3lyp/svp scf=(tight,noincore,xqc) Test 
#IOP(5/87=12) Density=Current Pop=(MK,readradii) iop(6/33=2) iop(6/42=6)

apoCaM-CA-Ng.loop1.water1.frame841 

   0  1 
C         45.11179       14.84570       89.99595
C         44.34269       14.77907       88.70530
O         43.27834       14.17846       88.67841
H         46.05512       15.42120       89.87828
H         44.49604       15.34727       90.77207
H         45.36742       13.82153       90.33750
N         44.82027       15.39777       87.59078
C         44.11370       15.42003       86.31353
C         43.90854       14.01345       85.73200
O         44.86566       13.27608       85.56189
C         44.81018       16.37429       85.31894
C         46.23502       16.05438       84.96838
O         46.78472       16.69528       84.08767
O         46.89205       15.02795       85.53036
H         45.71048       15.91254       87.67121
H         43.11413       15.87689       86.48491
H         44.78755       17.40730       85.72666
H         44.21642       16.36261       84.37852
N         42.64546       13.59000       85.43013
C         42.26839       12.24794       84.96667
C         42.86896       11.90294       83.59549
O         42.22889       12.13875       82.58091
C         40.71577       12.17511       84.98326
C         40.09576       10.79240       84.74438
C         38.56792       10.87901       84.94956
C         37.81807        9.55384       84.74505
N         38.19554        8.53696       85.72913
H         41.88319       14.26501       85.59744
H         42.62812       11.50675       85.71422
H         40.29771       12.90265       84.25142
H         40.39458       12.49227       86.00087
H         40.53562       10.07774       85.46988
H         40.31463       10.45405       83.71396
H         38.15673       11.61414       84.22318
H         38.34810       11.24909       85.97523
H         37.98955        9.17825       83.71603
H         36.72858        9.75658       84.84951
H         37.61749        7.68029       85.56906
H         39.20127        8.27578       85.63189
H         38.01332        8.88761       86.69739
N         44.09698       11.30229       83.51548
C         44.78803       10.91087       82.27443
C         46.11730       10.23706       82.64775
O         46.87125       10.83886       83.39866
C         45.01672       12.12431       81.32057
C         45.85826       13.20923       81.92640
O         45.34342       14.26294       82.26762
O         47.17817       13.01103       82.12592
H         44.56925       11.09931       84.40886
H         44.14757       10.20505       81.71289
H         44.03035       12.54754       81.04099
H         45.49136       11.79718       80.36998
N         46.51648        9.00510       82.22052
C         45.80362        8.12242       81.32132
C         44.53039        7.59723       81.92450
O         44.56705        7.05451       83.01989
H         47.43976        8.67195       82.54215
H         46.44823        7.23614       81.12929
H         45.63223        8.62532       80.34547
N         43.37051        7.66864       81.21673
C         42.10703        7.11336       81.67433
C         41.74215        5.94878       80.78027
O         41.61702        4.83771       81.27740
C         41.03240        8.20766       81.66476
C         39.70574        7.66744       82.11500
O         39.58800        7.09033       83.32527
O         38.73371        7.73290       81.37972
H         43.39567        8.09705       80.27850
H         42.20049        6.73258       82.71724
H         40.93317        8.64454       80.64681
H         41.35333        9.01721       82.34954
N         41.59721        6.12184       79.43557
C         41.34437        5.02620       78.51587
C         42.51634        4.06791       78.37566
O         42.38225        3.12067       77.61307
H         41.66949        7.06927       79.03739
H         41.14793        5.44699       77.50697
H         40.43512        4.47534       78.84214
N         43.68218        4.22562       79.07084
C         44.80938        3.30648       78.98653
C         46.10400        4.05674       78.70521
O         46.10439        5.28018       78.63791
C         44.90423        2.48134       80.29933
C         45.03872        3.34425       81.56352
O         43.75550        1.68116       80.41275
H         43.78892        5.01363       79.72110
H         44.66465        2.58191       78.15445
H         45.79770        1.82035       80.22561
H         44.00682        0.88356       80.94867
H         45.16606        2.68516       82.44810
H         45.90985        4.02447       81.50084
H         44.12996        3.95683       81.72634
N         47.26227        3.35742       78.55378
C         48.57717        3.96599       78.38614
C         49.17367        3.52096       77.06332
O         49.61084        4.36592       76.29562
C         49.51469        3.57959       79.57215
C         48.79635        3.80481       80.92772
C         50.82179        4.39728       79.49172
C         49.62813        3.44232       82.15709
H         47.21273        2.33047       78.60687
H         48.49273        5.07719       78.39026
H         49.76361        2.49697       79.50312
H         47.91127        3.13913       80.95573
H         48.45630        4.85966       81.01766
H         50.60599        5.48307       79.59925
H         51.53505        4.09736       80.28507
H         51.33709        4.23299       78.52322
H         50.49382        4.12462       82.27212
H         48.99672        3.54612       83.06521
H         49.98201        2.39195       82.08931
N         49.18574        2.19767       76.72050
C         49.75627        1.68661       75.48531
C         50.59397        0.46638       75.81268
O         50.05482       -0.51859       76.29792
C         48.64799        1.31454       74.47452
C         47.82373        2.54639       74.07854
O         49.24413        0.77545       73.32132
H         48.74336        1.51152       77.34668
H         50.39033        2.46321       75.00171
H         47.97701        0.55599       74.94182
H         48.53280        0.28920       72.82792
H         47.04312        2.25922       73.34332
H         47.31857        2.98604       74.96336
H         48.47913        3.31566       73.61511
N         51.92980        0.47501       75.57259
C         52.80783       -0.67045       75.80284
C         54.24478       -0.23393       75.58606
O         55.06824       -0.44273       76.46624
C         52.42985       -1.87871       74.89371
C         53.29831       -3.11006       75.19478
O         52.54381       -1.53168       73.53797
H         52.33439        1.35453       75.21894
H         52.70275       -1.00171       76.86119
H         51.37759       -2.16609       75.11067
H         52.04662       -2.21960       73.02144
H         54.36749       -2.91031       74.97308
H         53.19704       -3.39983       76.26283
H         52.96704       -3.96933       74.57284
N         54.59496        0.43578       74.45120
C         55.93787        0.90527       74.17167
C         55.97551        2.42321       74.20558
O         55.22728        3.06936       73.48458
C         56.37777        0.33349       72.81563
C         57.80722        0.75388       72.44346
C         58.31833        0.05861       71.17033
C         58.45963       -1.47467       71.28559
N         59.36718       -1.86941       72.36605
H         53.86970        0.64813       73.74863
H         56.65081        0.51971       74.93305
H         55.67948        0.65210       72.00908
H         56.32011       -0.76976       72.91095
H         58.50096        0.54341       73.28301
H         57.82186        1.85248       72.27263
H         59.31790        0.47952       70.92885
H         57.63728        0.29526       70.32358
H         58.86161       -1.85296       70.32042
H         57.47151       -1.95930       71.43462
H         59.51750       -2.90297       72.32593
H         60.28979       -1.38862       72.25963
H         58.95126       -1.64335       73.29772
N         56.87927        3.05230       75.01043
C         57.04711        4.49962       75.06535
C         55.84582        5.18110       75.72126
O         55.21190        5.96788       75.03250
C         58.39829        4.86215       75.72570
C         59.57873        4.40274       74.84983
C         60.89160        4.65574       75.53041
O         61.17598        4.03938       76.69405
O         61.71676        5.39786       75.02283
H         57.52497        2.46643       75.56175
H         57.11942        4.88710       74.02251
H         58.49000        4.37886       76.71370
H         58.47235        5.96442       75.85536
H         59.54189        4.94819       73.88041
H         59.51362        3.31494       74.63758
N         55.42120        4.96834       77.00365
C         56.04168        4.08277       77.96400
H         57.04574        4.44840       78.24366
H         55.44598        4.07869       78.90212
H         56.08082        3.04630       77.57339
H         54.57883        5.47387       77.32160
Ca        48.03404       13.95125       83.96348
O         46.74804       11.44995       87.16068
H         45.81562       11.12267       87.09637
H         47.01761       11.24822       88.09182

Ca 1.0



