%chk=apoCaM-CA-Ng.loop2.water4.frame241.chk
%nprocshared=20
%mem=10GB
%nosave
#b3lyp/svp scf=(tight,noincore,xqc) Test 
#IOP(5/87=12) Density=Current Pop=(MK,readradii) iop(6/33=2) iop(6/42=6)

apoCaM-CA-Ng.loop2.water4.frame241 

   -2  1 
C         32.22366       10.54828      103.34448
C         32.85401       10.20799      104.66638
O         32.96713       11.08925      105.50623
H         31.19323       10.92579      103.50756
H         32.81755       11.33629      102.83469
H         32.17607        9.66252      102.67649
N         33.30970        8.94599      104.91096
C         33.95405        8.54033      106.15508
C         35.38487        8.14199      105.84500
O         35.59456        7.26427      105.01862
C         33.16074        7.38169      106.78791
C         33.69363        6.93536      108.12735
O         34.76438        7.52782      108.69256
O         33.13585        6.02577      108.71914
H         33.21209        8.23493      104.16928
H         33.95525        9.38182      106.88314
H         33.15565        6.51377      106.09303
H         32.11019        7.71426      106.93716
N         36.42207        8.78586      106.45204
C         37.82408        8.56912      106.10703
C         38.38624        9.85609      105.53603
O         37.66842       10.84667      105.52177
C         38.59553        8.10154      107.34085
H         36.21037        9.51017      107.15672
H         37.91826        7.79001      105.31987
H         38.15669        7.15044      107.71221
H         39.66086        7.91562      107.09075
H         38.53975        8.86114      108.14928
N         39.65453        9.93378      105.03409
C         40.12500       11.13189      104.34056
C         41.03442       11.93488      105.26355
O         42.15130       12.27787      104.89936
C         40.81290       10.75620      103.00393
C         40.11096        9.68717      102.18571
O         40.67757        8.61383      102.05211
O         38.91047        9.83346      101.57888
H         40.28683        9.12344      105.11621
H         39.26150       11.78958      104.09852
H         41.80491       10.32743      103.27208
H         41.00013       11.66559      102.39424
N         40.58657       12.27326      106.50396
C         41.32089       13.09545      107.44741
C         41.43100       14.51070      106.94655
O         42.50877       15.08681      106.98076
H         39.65826       11.94492      106.80614
H         42.31116       12.65275      107.69282
H         40.72887       13.14252      108.38764
N         40.31974       15.12533      106.45653
C         40.26177       16.51041      106.01751
C         39.07485       17.15158      106.70731
O         37.96499       16.66043      106.54490
C         40.10205       16.57020      104.48877
C         41.29488       15.95442      103.79468
N         41.14868       14.87905      102.98607
O         42.40658       16.43319      103.96655
H         39.45331       14.56975      106.37882
H         41.19766       17.05286      106.28241
H         40.01933       17.63070      104.16526
H         39.16992       16.04258      104.19068
H         40.22255       14.45674      102.82901
H         41.96725       14.46265      102.51745
N         39.23080       18.21838      107.53662
C         38.13230       18.75555      108.32429
C         37.00553       19.34884      107.50292
O         37.08106       19.40591      106.28322
H         40.17087       18.62027      107.67355
H         38.52193       19.55362      108.99296
H         37.72474       17.94223      108.96314
N         35.91639       19.84339      108.15726
C         34.80401       20.52521      107.49238
C         33.96766       19.62423      106.57886
O         33.11004       20.16109      105.88939
C         33.88825       21.23892      108.52985
C         33.13883       20.28074      109.47491
O         34.62221       22.19399      109.25950
H         35.92869       19.78680      109.18558
H         35.24615       21.32526      106.85763
H         33.10709       21.80053      107.97272
H         35.12709       21.72926      109.97622
H         32.50384       20.86476      110.17356
H         32.47443       19.61379      108.89445
H         33.83678       19.66110      110.07524
N         34.14025       18.27204      106.51168
C         33.36957       17.39408      105.63007
C         34.33156       16.77442      104.63783
O         35.33531       16.21921      105.06853
C         32.62828       16.29720      106.45482
C         31.70544       16.88430      107.55517
C         31.83134       15.34650      105.53788
C         30.57360       17.78929      107.05307
H         34.85642       17.82573      107.10365
H         32.60192       17.96181      105.06088
H         33.39035       15.68119      106.98309
H         32.32648       17.45686      108.27099
H         31.24920       16.04596      108.12593
H         31.06869       15.89741      104.94916
H         32.50460       14.82732      104.82510
H         31.32264       14.56531      106.14246
H         30.97200       18.67778      106.52523
H         29.88583       17.23928      106.37934
H         29.98182       18.14977      107.92083
N         34.07764       16.79572      103.29465
C         34.99827       16.22093      102.31940
C         35.22221       17.13596      101.10922
O         35.85507       16.70367      100.15724
C         34.50982       14.80923      101.91184
C         35.63394       13.95098      101.36106
O         36.76857       14.38967      101.25170
O         35.43519       12.64765      101.11298
H         33.16987       17.16102      102.96460
H         35.98349       16.06846      102.81153
H         33.63815       14.86538      101.22382
H         34.18092       14.28311      102.83533
N         34.77882       18.42968      101.08504
C         35.01054       19.31432       99.94604
C         34.14753       18.90053       98.76065
O         32.94072       18.81604       98.93228
C         34.73895       20.78640      100.33374
C         35.02659       21.72141       99.17659
C         36.24105       22.42642       99.11184
C         34.09110       21.87728       98.13637
C         36.51738       23.25624       98.01954
C         34.36821       22.71170       97.05176
C         35.58224       23.39788       96.99065
H         34.31802       18.82316      101.91708
H         36.09237       19.27730       99.70192
H         35.42923       21.02020      101.17489
H         33.70393       20.94915      100.70472
H         36.98244       22.31856       99.89358
H         33.14422       21.35473       98.16284
H         37.45949       23.78603       97.96717
H         33.64169       22.82222       96.25711
H         35.79745       24.03877       96.14563
N         34.66993       18.69995       97.50854
C         33.88344       18.37161       96.32580
C         33.03108       17.13109       96.48252
O         31.86435       17.16301       96.11688
C         34.94464       18.13839       95.24206
C         36.01274       19.12180       95.64749
C         36.06199       18.90979       97.15671
H         33.25555       19.25233       96.05716
H         35.39555       17.12578       95.35308
H         34.56575       18.24505       94.20265
H         36.98955       19.01218       95.13146
H         35.61660       20.14559       95.44808
H         36.64301       18.00556       97.44201
H         36.50436       19.82702       97.59785
N         33.56026       15.99523       97.02157
C         32.82612       14.73489       97.12471
C         31.53806       14.86805       97.92277
O         30.66103       14.03428       97.74318
C         33.69284       13.64023       97.78417
C         34.95965       13.29490       96.98658
C         35.79028       12.29686       97.74093
O         35.28548       11.08730       98.05103
O         36.92611       12.58280       98.08522
H         34.53242       16.03868       97.35948
H         32.55304       14.41991       96.09205
H         33.09133       12.71036       97.89410
H         33.98052       13.99201       98.80002
H         35.57693       14.20003       96.81251
H         34.67895       12.87281       95.99817
N         31.36011       15.86496       98.83432
C         30.14155       16.04613       99.59577
H         29.36316       15.29787       99.33735
H         30.36856       15.96244      100.67863
H         29.73204       17.05751       99.39010
H         32.12381       16.52633       99.01548
Ca        37.34397       11.41532      101.14293
O         39.47675       13.22280      100.32770
H         40.20778       12.57764      100.15707
H         39.86714       14.10763      100.11842
O         35.71493       10.66910      103.52670
H         35.11284       11.44627      103.62373
H         36.60607       11.08406      103.44345
O         38.62722        9.91130       98.54903
H         38.30019       10.27999       97.69056
H         39.46177       10.41181       98.73190
O         35.26155        9.04685      100.99875
H         34.43154        8.50906      101.04440
H         35.95191        8.47603      101.42103

Ca 1.0



