%chk=apoCaM-CA-Ng.loop1.water4.frame386.chk
%nprocshared=20
%mem=10GB
%nosave
#b3lyp/svp scf=(tight,noincore,xqc) Test 
#IOP(5/87=12) Density=Current Pop=(MK,readradii) iop(6/33=2) iop(6/42=6)

apoCaM-CA-Ng.loop1.water4.frame386 

   0  1 
C          4.46377       91.18728       23.41187
C          4.64019       89.79816       22.86787
O          4.97757       89.63643       21.70428
H          3.42198       91.31684       23.77450
H          5.15919       91.34264       24.26525
H          4.67505       91.95258       22.63662
N          4.44119       88.73526       23.68959
C          4.63164       87.34169       23.29268
C          3.49599       86.80729       22.40587
O          3.49558       85.61806       22.14504
C          4.72479       86.45649       24.56742
C          5.90917       86.80000       25.44195
O          6.77461       85.96505       25.65193
O          6.01345       88.01062       26.02254
H          4.19086       88.94124       24.66937
H          5.60300       87.22729       22.76178
H          4.83767       85.39380       24.26609
H          3.79066       86.54122       25.16405
N          2.46995       87.57338       21.94074
C          1.26560       86.98947       21.34289
C          1.02521       87.45782       19.91897
O          1.13124       88.65602       19.69580
C          0.06757       87.43277       22.19063
C          0.15825       86.91983       23.63681
C         -0.97328       87.46315       24.51788
C         -2.36850       87.03364       24.04302
N         -3.40475       87.56863       24.92174
H          2.47245       88.59000       22.10037
H          1.28982       85.88870       21.37415
H         -0.85292       87.04113       21.71961
H          0.01438       88.54446       22.19405
H          1.11367       87.25954       24.09184
H          0.14890       85.80824       23.64130
H         -0.91328       88.57355       24.53637
H         -0.81394       87.08819       25.55168
H         -2.43054       85.92275       24.02337
H         -2.55430       87.41986       23.02263
H         -4.33987       87.25854       24.57169
H         -3.26840       87.21614       25.89629
H         -3.37143       88.61438       24.91334
N          0.57588       86.64807       18.90224
C          0.32853       85.19910       18.90455
C         -0.60059       84.72506       20.02706
O         -0.18743       83.88455       20.81589
C          1.64822       84.40135       18.90907
C          2.59091       84.71585       17.79316
O          2.33054       85.67289       16.88656
O          3.66153       84.13114       17.74725
H          0.35367       87.12088       18.01157
H         -0.16985       84.93358       17.94454
H          1.40560       83.31760       18.84757
H          2.19935       84.60436       19.84112
N         -1.87796       85.16457       20.18628
C         -2.52424       86.14683       19.33546
C         -3.91068       86.44701       19.88455
O         -3.97364       86.81895       21.04644
H         -2.41312       84.76546       20.97559
H         -2.51631       85.76361       18.30249
H         -1.94602       87.09216       19.36041
N         -5.08235       86.31405       19.19661
C         -5.24261       85.97785       17.78870
C         -5.91580       84.62754       17.59900
O         -6.16968       84.27818       16.45399
C         -6.01702       87.11767       17.08698
C         -7.40958       87.32410       17.62567
O         -8.32935       86.34469       17.53200
O         -7.71724       88.39009       18.13455
H         -5.95149       86.49314       19.72544
H         -4.27597       85.91218       17.26374
H         -6.08879       86.90981       15.99780
H         -5.43289       88.05735       17.20972
N         -6.18605       83.78801       18.64741
C         -6.78814       82.47713       18.46345
C         -5.78680       81.39134       18.76502
O         -6.06504       80.50717       19.56175
H         -5.92290       84.05186       19.60729
H         -7.10318       82.32617       17.40884
H         -7.69935       82.38525       19.09273
N         -4.60144       81.38704       18.09581
C         -3.61692       80.30751       18.14673
C         -3.07260       79.99812       19.54105
O         -3.35734       80.70494       20.49734
C         -2.44860       80.61928       17.16536
C         -1.64846       81.87645       17.56687
O         -2.96719       80.78664       15.87045
H         -4.43509       82.16902       17.44540
H         -4.12917       79.38497       17.79384
H         -1.76168       79.74619       17.15968
H         -2.21352       80.65830       15.23663
H         -0.81280       82.03414       16.85312
H         -2.27953       82.78851       17.55565
H         -1.21579       81.77048       18.58243
N         -2.25323       78.91459       19.69159
C         -1.61068       78.48926       20.93194
C         -0.08920       78.62422       20.76458
O          0.64501       78.18604       21.63507
C         -2.04799       77.00792       21.24884
C         -3.59888       76.89366       21.26129
C         -1.47795       76.48734       22.59414
C         -4.12019       75.46531       21.46346
H         -2.04998       78.33968       18.85924
H         -1.92228       79.13224       21.78459
H         -1.66725       76.35190       20.43394
H         -3.99484       77.22907       20.27984
H         -4.02456       77.55015       22.05079
H         -0.37783       76.43379       22.61637
H         -1.82938       77.11733       23.43848
H         -1.77206       75.43764       22.78048
H         -3.69855       74.78647       20.69169
H         -3.87776       75.07399       22.47162
H         -5.22626       75.45985       21.37613
N          0.46736       79.26976       19.69282
C          1.90497       79.32663       19.46112
C          2.47813       80.64755       19.93039
O          3.12017       81.35253       19.16472
C          2.24720       78.94284       17.99300
C          1.66609       79.88948       16.92461
O          1.78189       77.63969       17.75263
H         -0.13520       79.76087       19.02537
H          2.41931       78.57286       20.09766
H          3.35919       78.95830       17.90653
H          2.28361       77.29183       16.96966
H          2.00846       80.93431       17.05709
H          1.99671       79.55708       15.91809
H          0.56146       79.87500       16.92762
N          2.34801       81.00046       21.24366
C          3.00448       82.16986       21.81941
C          4.52052       82.05038       21.67793
O          5.00174       81.02620       21.20928
C          2.56873       82.39029       23.29728
C          3.02136       81.27773       24.24923
O          1.16855       82.49610       23.36645
H          1.78713       80.39661       21.85776
H          2.67144       83.05734       21.25791
H          3.02878       83.32998       23.68299
H          0.93833       83.45287       23.23756
H          2.59432       80.29523       23.96315
H          4.12830       81.20215       24.26249
H          2.67903       81.51388       25.27972
N          5.33932       83.06517       22.06616
C          6.78770       83.01333       21.95933
C          7.34107       84.12575       21.05492
O          8.54057       84.13198       20.82268
C          7.33361       83.01001       23.39951
C          8.81135       82.62541       23.52313
C          9.16365       82.38378       24.99843
C         10.60876       81.90253       25.16110
N         10.89978       81.60201       26.56302
H          4.93179       83.89341       22.50250
H          7.09129       82.05238       21.49059
H          6.75885       82.22307       23.94062
H          7.13062       83.98101       23.89963
H          9.45983       83.41681       23.09312
H          8.97878       81.67568       22.96881
H          8.48930       81.59623       25.40409
H          9.00838       83.31720       25.58271
H         11.30570       82.68718       24.79354
H         10.76216       80.98072       24.55618
H         10.27002       80.83881       26.90403
H         11.89089       81.28043       26.64648
H         10.76659       82.45602       27.15163
N          6.53247       85.06400       20.46131
C          7.01694       86.05794       19.49875
C          8.09445       86.94091       20.09659
O          7.85009       87.61466       21.08831
C          5.84517       86.92983       18.96717
C          6.27798       88.04790       17.98745
C          7.01848       87.55827       16.76518
O          8.18331       87.88200       16.59954
O          6.41061       86.81234       15.82099
H          5.52377       85.05532       20.65804
H          7.43600       85.51261       18.62555
H          5.33733       87.42107       19.82760
H          5.10267       86.27153       18.47371
H          6.93309       88.75589       18.54023
H          5.38471       88.62251       17.66061
N          9.31273       87.01394       19.49154
C         10.36315       87.89050       19.95548
H         11.24865       87.79737       19.28997
H         10.01402       88.94494       19.92607
H         10.65927       87.61915       20.98930
H          9.49672       86.44758       18.64935
Ca         4.21939       86.34780       15.90748
O          5.69808       83.71517       14.96488
H          5.45398       82.86495       14.52021
H          6.62092       83.90024       14.65761
O          5.30277       89.19347       14.07936
H          5.32015       89.86588       13.35315
H          6.15071       88.69455       13.97013
O          2.73991       83.91954       13.56984
H          2.89167       83.00744       13.92413
H          2.35908       83.77453       12.66734
O          5.00957       86.22148       12.55572
H          4.86224       87.09599       12.11526
H          4.72452       85.55424       11.88199

Ca 1.0



