%chk=apoCaM-CA-Ng.loop3.water2.frame727.chk
%nprocshared=20
%mem=10GB
%nosave
#b3lyp/svp scf=(tight,noincore,xqc) Test 
#IOP(5/87=12) Density=Current Pop=(MK,readradii) iop(6/33=2) iop(6/42=6)

apoCaM-CA-Ng.loop3.water2.frame727 

   0  1 
C         75.39584      -18.30990       79.62769
C         75.09772      -19.18537       78.44535
O         74.26301      -18.81735       77.63262
H         75.77405      -17.32855       79.27008
H         74.47423      -18.15255       80.22379
H         76.17161      -18.76127       80.28225
N         75.77225      -20.35376       78.26821
C         75.60083      -21.20336       77.09619
C         74.20037      -21.79386       77.05298
O         73.82820      -22.48275       77.99366
C         76.67568      -22.31025       77.11612
C         76.78745      -23.06970       75.83026
O         77.77743      -23.96651       75.68398
O         76.02779      -22.85364       74.90233
H         76.48127      -20.61613       78.97121
H         75.79248      -20.58049       76.19806
H         76.50732      -23.00833       77.96376
H         77.65912      -21.83244       77.27140
N         73.35469      -21.54753       76.00535
C         71.98266      -22.05438       75.99347
C         71.90432      -23.58041       75.91001
O         70.84239      -24.11599       76.19472
C         71.11559      -21.36235       74.91061
C         71.46230      -21.73413       73.45500
C         70.66711      -20.91386       72.41422
C         69.13745      -21.05428       72.53469
N         68.45533      -20.32012       71.46709
H         73.67401      -20.93084       75.24381
H         71.53926      -21.74678       76.96750
H         71.21549      -20.26214       75.04193
H         70.05583      -21.63493       75.09931
H         71.26778      -22.81691       73.29562
H         72.54036      -21.54612       73.26677
H         70.97795      -21.25853       71.40350
H         70.93775      -19.83927       72.50797
H         68.79696      -20.64876       73.51167
H         68.85260      -22.12760       72.47731
H         68.71201      -19.30656       71.50039
H         68.71218      -20.71844       70.53481
H         67.42097      -20.40838       71.59615
N         72.96888      -24.34004       75.50652
C         72.96028      -25.80298       75.45446
C         74.10393      -26.42750       76.26746
O         74.19728      -27.64697       76.29366
C         72.94329      -26.27265       73.98657
C         74.13292      -25.83263       73.18549
O         75.36038      -26.28023       73.49476
O         73.98498      -25.09757       72.22281
H         73.81925      -23.86427       75.18362
H         72.01866      -26.19552       75.89858
H         72.02119      -25.86541       73.51533
H         72.87523      -27.38168       73.94664
N         74.95853      -25.67002       77.01732
C         75.92482      -26.23166       77.94977
C         77.19323      -26.82278       77.36092
O         77.98725      -27.28474       78.16724
H         74.83272      -24.65299       77.05184
H         75.41334      -26.98991       78.58221
H         76.26061      -25.41991       78.63184
N         77.51346      -26.80020       76.02995
C         78.80143      -27.30973       75.52684
C         79.18365      -26.74451       74.15873
O         78.35560      -26.18280       73.46654
C         78.77036      -28.85196       75.38384
C         78.57270      -29.59589       76.67528
N         77.45972      -30.33843       76.88097
O         79.43137      -29.53578       77.54288
H         76.87043      -26.32196       75.38947
H         79.60371      -26.96707       76.21927
H         79.72034      -29.22123       74.94064
H         77.95127      -29.10322       74.67373
H         76.72282      -30.39849       76.16291
H         77.32783      -30.84812       77.76671
N         80.46168      -26.89347       73.70691
C         80.95068      -26.46688       72.40063
C         80.87872      -24.97033       72.17240
O         81.31737      -24.21871       73.03227
H         81.14258      -27.36265       74.32496
H         80.42301      -27.01777       71.59379
H         82.02625      -26.74481       72.34259
N         80.43138      -24.46975       70.97822
C         80.44721      -23.03988       70.67369
C         79.39382      -22.30843       71.55146
O         78.13120      -22.70858       71.10266
C         80.14616      -22.75784       69.17088
C         81.07466      -23.39926       68.16320
C         82.45368      -23.12730       68.15814
C         80.54247      -24.24099       67.16835
C         83.27980      -23.68441       67.17232
C         81.36744      -24.79171       66.18516
C         82.73634      -24.51427       66.17935
O         83.51389      -25.04273       65.21226
H         80.13894      -25.13213       70.24369
H         81.46609      -22.65096       70.89587
H         80.19630      -21.66064       69.00187
H         79.10751      -23.07864       68.94220
H         82.88841      -22.47509       68.90422
H         79.48205      -24.45870       67.13833
H         84.33949      -23.46213       67.17296
H         80.93797      -25.42593       65.41920
H         84.46348      -24.86517       65.15731
N         79.49550      -20.84371       71.42294
C         78.84910      -20.04246       72.49302
C         77.33287      -20.20599       72.48975
O         76.83872      -21.27960       72.78378
C         79.44278      -20.27116       73.92693
C         78.72506      -19.31858       74.93321
C         80.96495      -20.03206       73.94222
C         79.24611      -19.36787       76.36928
H         80.49389      -20.54949       71.32787
H         79.06110      -18.97963       72.23943
H         79.26157      -21.32257       74.24414
H         77.65056      -19.59177       74.97368
H         78.79907      -18.26586       74.58279
H         81.38610      -20.22103       74.94998
H         81.48967      -20.73935       73.27041
H         81.20045      -18.98920       73.64039
H         79.23543      -20.40228       76.75673
H         80.27750      -18.96822       76.43483
H         78.60101      -18.73129       77.01288
N         76.52802      -19.14017       72.23266
C         75.07102      -19.20530       72.25871
C         74.47424      -18.75226       70.93901
O         73.25811      -18.62818       70.87115
C         74.56117      -18.29415       73.38219
O         75.10084      -18.70594       74.60377
H         76.96179      -18.22401       72.03968
H         74.70638      -20.23580       72.46883
H         73.45056      -18.35822       73.43733
H         74.86824      -17.24486       73.16939
H         74.83460      -18.01650       75.26392
N         75.25159      -18.48297       69.84765
C         74.71853      -17.90636       68.62296
C         74.76235      -18.89616       67.47806
O         75.52686      -19.84842       67.55242
C         75.54549      -16.67107       68.27543
H         76.26424      -18.67273       69.87473
H         73.66180      -17.61615       68.78519
H         75.21803      -16.25096       67.31487
H         75.45235      -15.90748       69.07703
H         76.61762      -16.94096       68.16151
N         73.92532      -18.80992       66.39868
C         72.85193      -17.82781       66.22738
C         72.69139      -17.45810       64.75826
O         72.65228      -18.36848       63.94187
C         71.54228      -18.44563       66.72277
H         73.96250      -19.59099       65.72442
H         73.00857      -16.92777       66.84395
H         71.29140      -19.36508       66.15329
H         71.63099      -18.70651       67.79932
H         70.71283      -17.71305       66.61467
N         72.49550      -16.18240       64.30787
C         72.38838      -14.99215       65.14470
C         73.73332      -14.62116       65.72761
O         73.81097      -14.37932       66.92363
C         71.81571      -13.81287       64.32798
C         71.41797      -12.63673       65.23777
C         70.77602      -11.53271       64.45029
O         71.40601      -10.94516       63.58588
O         69.50037      -11.17956       64.70163
H         72.33158      -16.06904       63.29417
H         71.64306      -15.18954       65.94818
H         70.88831      -14.16089       63.82067
H         72.53923      -13.48822       63.54755
H         72.30301      -12.23397       65.77390
H         70.68655      -13.00131       65.99356
N         74.83866      -14.57018       64.92885
C         76.17094      -14.26765       65.41248
H         76.57597      -13.39474       64.86053
H         76.18778      -14.04012       66.49859
H         76.83175      -15.14258       65.23004
H         74.74317      -14.79019       63.92591
Ca        77.15282      -23.99831       72.67104
O         75.17595      -22.78175       70.53458
H         74.37130      -22.22392       70.38988
H         75.73356      -22.62928       69.73068
O         76.65678      -26.00636       70.57724
H         76.97519      -25.63501       69.71666
H         77.26671      -26.76322       70.76524

Ca 1.0



