%chk=apoCaM-CA-Ng.loop4.water4.frame700.chk
%nprocshared=20
%mem=10GB
%nosave
#b3lyp/svp scf=(tight,noincore,xqc) Test 
#IOP(5/87=12) Density=Current Pop=(MK,readradii) iop(6/33=2) iop(6/42=6)

apoCaM-CA-Ng.loop4.water4.frame700 

   -3  1 
C        101.23232       95.17954       -4.52878
C        102.45893       94.43531       -4.97089
O        102.50116       93.98895       -6.10569
H        100.34897       94.51025       -4.60050
H        101.32326       95.52186       -3.47591
H        101.07343       96.06473       -5.17792
N        103.50349       94.26092       -4.11468
C        104.71294       93.49923       -4.41404
C        105.46472       94.08292       -5.59360
O        105.82952       93.35692       -6.51100
C        104.37958       92.01050       -4.62329
C        103.58058       91.46800       -3.47908
O        102.31808       91.07569       -3.72164
O        104.05521       91.38537       -2.35707
H        103.44050       94.67695       -3.17303
H        105.38371       93.57996       -3.53026
H        105.30466       91.40817       -4.75685
H        103.77273       91.89879       -5.54830
N        105.72271       95.41726       -5.63539
C        106.49140       96.02108       -6.71836
C        107.97435       95.68085       -6.53986
O        108.36966       95.42085       -5.41124
C        106.26072       97.56111       -6.80562
C        106.75734       98.30537       -5.53615
C        104.77197       97.84594       -7.09972
C        106.70797       99.82591       -5.66726
H        105.33287       96.00561       -4.88699
H        106.11072       95.58055       -7.66699
H        106.84726       97.94098       -7.66915
H        107.81935       98.04045       -5.35312
H        106.17016       98.01188       -4.64198
H        104.12281       97.51136       -6.26278
H        104.59107       98.92473       -7.27415
H        104.45452       97.31344       -8.02198
H        105.66798      100.19095       -5.78056
H        107.12906      100.28343       -4.74748
H        107.31578      100.15294       -6.53723
N        108.87540       95.61880       -7.56601
C        108.53211       95.74266       -8.97729
C        108.20975       94.38594       -9.57987
O        107.63365       94.35425      -10.65851
C        109.61322       96.51892       -9.75805
C        110.97215       95.85865       -9.81735
O        111.20418       94.65643       -9.25446
O        111.88337       96.42569      -10.39791
H        109.83251       95.32264       -7.32256
H        107.60306       96.33547       -9.07087
H        109.72966       97.51771       -9.28382
H        109.26264       96.67210      -10.80159
N        108.49285       93.22503       -8.91597
C        108.00754       91.92551       -9.33330
C        108.42610       91.48464      -10.71300
O        109.16937       92.16292      -11.40895
H        109.00972       93.24875       -8.02589
H        106.89713       91.95764       -9.31468
H        108.34038       91.15611       -8.60212
N        107.90908       90.31336      -11.17034
C        108.13238       89.76819      -12.50256
C        107.61351       90.65231      -13.63031
O        107.89718       90.31944      -14.77398
C        107.50435       88.35020      -12.62826
C        106.00802       88.27971      -12.38538
O        105.47869       88.58647      -11.18519
O        105.26710       87.87688      -13.26523
H        107.33843       89.77948      -10.50372
H        109.23122       89.66651      -12.64438
H        107.99666       87.67090      -11.90263
H        107.71885       87.95876      -13.64815
N        106.84720       91.76734      -13.42830
C        106.35690       92.55464      -14.54975
C        105.39474       91.77479      -15.43181
O        105.08531       92.25138      -16.51395
H        106.59391       92.07182      -12.47810
H        107.23162       92.88992      -15.14783
H        105.82942       93.46445      -14.18523
N        104.82422       90.60617      -15.00433
C        103.84063       89.83597      -15.75799
C        102.57646       90.62055      -16.05746
O        101.75979       90.14965      -16.83791
C        104.45067       89.11582      -16.98174
C        105.38953       87.98096      -16.51912
C        105.76347       87.01179      -17.61223
N        106.37913       85.85027      -17.28858
O        105.47353       87.23785      -18.77806
H        105.03635       90.26479      -14.06019
H        103.46465       89.01916      -15.10279
H        104.94851       89.81655      -17.68575
H        103.61557       88.61697      -17.52061
H        104.83269       87.37160      -15.77628
H        106.30116       88.38442      -16.02757
H        106.59546       85.62699      -16.30518
H        106.60498       85.15440      -18.01440
N        102.26709       91.73150      -15.33283
C        100.97129       92.38911      -15.37768
C        100.25389       92.22526      -14.04057
O         99.13141       92.69502      -13.92579
C        101.12778       93.87903      -15.77521
C        101.95416       94.68538      -14.75731
C        101.75114       93.99317      -17.17361
H        102.94073       92.08537      -14.64121
H        100.31477       91.90807      -16.13706
H        100.11190       94.33044      -15.82155
H        102.99844       94.31599      -14.69227
H        101.98924       95.75245      -15.06025
H        101.49166       94.63181      -13.74913
H        101.12965       93.44707      -17.91538
H        101.80967       95.05710      -17.48391
H        102.77557       93.56472      -17.18799
N        100.82689       91.54315      -12.99830
C        100.17325       91.31168      -11.72061
C         99.98561       89.80324      -11.55395
O        100.44957       89.03811      -12.38783
C        101.06574       91.92127      -10.61114
C        100.44928       92.06761       -9.23799
N        101.24749       92.26176       -8.16522
O         99.23779       92.06535       -9.08620
H        101.76300       91.12909      -13.09348
H         99.17689       91.80378      -11.71418
H        101.37833       92.94677      -10.90511
H        101.99007       91.30630      -10.54367
H        102.27255       92.28682       -8.26938
H        100.83780       92.37082       -7.22578
N         99.24892       89.31018      -10.52719
C         98.94043       87.89154      -10.37808
C         97.78294       87.70120       -9.40638
O         97.30044       88.66741       -8.83453
C        100.17605       87.06372       -9.94031
C        100.55911       87.32823       -8.50389
C        101.12307       88.55327       -8.11286
C        100.32389       86.33822       -7.53326
C        101.44128       88.78309       -6.77077
C        100.63263       86.57296       -6.19610
C        101.19183       87.78893       -5.81069
O        101.49010       87.98173       -4.51575
H         98.81388       89.98381       -9.89856
H         98.58805       87.51623      -11.36394
H        101.04824       87.21730      -10.61084
H         99.90274       85.99151      -10.04278
H        101.32120       89.32486       -8.84359
H         99.88380       85.38733       -7.80495
H        101.87734       89.73148       -6.48017
H        100.43585       85.80856       -5.45530
H        101.92453       88.78597       -4.21963
N         97.27138       86.46272       -9.18271
C         96.14140       86.24699       -8.29937
C         96.56836       85.34524       -7.15946
O         96.61887       84.14237       -7.37653
C         94.98530       85.67185       -9.14741
C         93.72860       85.32455       -8.34194
C         92.63355       84.86264       -9.26235
O         92.14818       83.61044       -9.16349
O         92.17853       85.62031      -10.10512
H         97.67713       85.64843       -9.66743
H         95.77299       87.19787       -7.88606
H         95.32760       84.75575       -9.67979
H         94.72749       86.43512       -9.91661
H         93.37456       86.20954       -7.77271
H         93.96777       84.51041       -7.62479
N         96.92954       85.79497       -5.91448
C         97.09872       87.18512       -5.45988
C         95.82261       88.00261       -5.54114
O         94.78244       87.55022       -5.08339
C         97.58421       87.17855       -3.98268
C         97.83798       88.57767       -3.36761
C         98.09818       88.46539       -1.88159
O         99.21625       88.94853       -1.29736
O         97.25429       87.94155       -1.17225
H         97.16985       85.05657       -5.23323
H         97.89248       87.67112       -6.06872
H         98.52518       86.59105       -3.90713
H         96.80375       86.66141       -3.38237
H         96.92965       89.20597       -3.47834
H         98.67709       89.08541       -3.89179
N         95.87115       89.26981       -6.04708
C         94.73604       90.16775       -6.09598
H         93.80326       89.69337       -5.72795
H         94.94922       91.05769       -5.46456
H         94.57891       90.50579       -7.14107
H         96.77374       89.64511       -6.37596
Ca       100.90638       90.03254       -2.31105
O        100.05772       92.47817        0.71148
H        100.24870       92.79326        1.63061
H         99.15625       92.83416        0.50938
O        102.85132       91.22688        1.13241
H        103.82196       91.39337        1.03045
H        102.71334       91.14869        2.10990
O        103.16864       88.61761       -0.62161
H        102.48293       87.97560       -0.93488
H        103.94423       88.46314       -1.21732
O         99.37446       92.57731       -2.41171
H         99.03026       92.41435       -3.32565
H         99.30787       93.55719       -2.28847

Ca 1.0



