%chk=apoCaM-CA-Ng.loop4.water4.frame265.chk
%nprocshared=20
%mem=10GB
%nosave
#b3lyp/svp scf=(tight,noincore,xqc) Test 
#IOP(5/87=12) Density=Current Pop=(MK,readradii) iop(6/33=2) iop(6/42=6)

apoCaM-CA-Ng.loop4.water4.frame265 

   -3  1 
C         43.04847       29.77870       20.43893
C         44.49448       29.44275       20.63741
O         44.76136       28.45855       21.30035
H         42.56724       29.94188       21.42567
H         42.92197       30.68657       19.81563
H         42.54539       28.92595       19.93226
N         45.48270       30.18668       20.06033
C         46.90361       29.85820       20.13559
C         47.18225       28.48205       19.55923
O         47.67680       27.61941       20.25596
C         47.57545       30.23053       21.49575
C         46.96200       29.95715       22.86375
O         46.78033       28.73484       23.40521
O         46.71406       30.91942       23.57367
H         45.21261       30.98977       19.47306
H         47.44621       30.52468       19.42547
H         47.65309       31.34172       21.45647
H         48.62243       29.85735       21.48622
N         46.90407       28.25934       18.23754
C         47.10765       27.03321       17.45736
C         48.59014       26.71539       17.22904
O         49.00395       26.79715       16.07963
C         46.24063       25.84880       17.96573
C         46.31546       24.59996       17.03708
C         44.77473       26.30540       18.11744
C         45.77392       24.79915       15.61114
H         46.48928       29.04756       17.71559
H         46.70620       27.27228       16.44701
H         46.60816       25.53394       18.96564
H         45.72652       23.77956       17.50383
H         47.36788       24.25214       16.96831
H         44.37796       26.71844       17.16633
H         44.13002       25.46209       18.41764
H         44.68520       27.09453       18.88998
H         45.85583       23.84573       15.04820
H         44.70120       25.08339       15.62087
H         46.35089       25.56570       15.05614
N         49.46593       26.39077       18.22932
C         50.89407       26.23612       17.97225
C         51.20144       24.94509       17.21380
O         51.73070       25.06327       16.11767
C         51.76098       26.43680       19.24146
C         51.60908       27.82301       19.81617
O         51.29213       27.98797       21.11243
O         51.81486       28.80630       19.12247
H         49.14720       26.31657       19.19773
H         51.21169       27.08086       17.31721
H         52.82735       26.32045       18.95082
H         51.54023       25.71005       20.04037
N         50.92868       23.68032       17.66060
C         50.29328       23.36385       18.93222
C         50.11969       21.86635       19.17126
O         50.46245       21.08523       18.29511
H         51.19983       22.90833       17.03328
H         49.29573       23.84355       18.95403
H         50.93570       23.74257       19.72482
N         49.57423       21.33969       20.31482
C         49.11940       22.05679       21.50297
C         48.03999       23.07296       21.15051
O         48.29528       24.26479       21.25195
C         50.32164       22.65574       22.28229
C         49.98809       23.04551       23.69937
O         48.76268       22.83094       24.21273
O         50.85575       23.52771       24.40934
H         49.46681       20.31306       20.34923
H         48.68546       21.30338       22.19646
H         50.73419       23.54545       21.78002
H         51.12130       21.88755       22.34809
N         46.79031       22.71674       20.73756
C         46.25248       21.37455       20.71628
C         46.65282       20.61492       19.49279
O         47.35359       21.13993       18.64008
H         46.13205       23.45820       20.49704
H         45.14246       21.44577       20.67217
H         46.50300       20.83871       21.65511
N         46.16241       19.36246       19.31460
C         46.45024       18.56181       18.13806
C         45.23743       18.48584       17.22728
O         45.36806       17.91566       16.15244
C         46.95906       17.17546       18.57251
C         48.27854       17.29195       19.36194
C         48.82571       15.96157       19.81808
N         49.99996       15.91564       20.48894
O         48.22115       14.92376       19.58887
H         45.52159       18.97480       20.02613
H         47.24157       19.04371       17.52206
H         47.14203       16.55117       17.67109
H         46.18373       16.67807       19.19761
H         48.12780       17.92544       20.26291
H         49.03909       17.77781       18.71259
H         50.52603       16.77978       20.68706
H         50.38801       15.01519       20.80694
N         44.04853       19.08509       17.54778
C         42.92302       19.17106       16.62472
C         41.72775       18.35213       17.08269
O         40.77967       18.26872       16.31523
C         42.53864       20.65925       16.36074
C         43.69731       21.41287       15.69017
C         42.09798       21.41062       17.63264
H         43.93274       19.53043       18.46721
H         43.20496       18.72604       15.64488
H         41.68366       20.67118       15.64877
H         44.58780       21.45110       16.35356
H         43.97983       20.91139       14.74008
H         43.39124       22.45391       15.45055
H         41.24547       20.89409       18.12071
H         42.92767       21.50702       18.36374
H         41.76994       22.43879       17.36865
N         41.70025       17.69026       18.27928
C         40.60925       16.79125       18.65040
C         39.81860       17.28287       19.84944
O         38.81564       16.64885       20.15728
C         41.19065       15.39743       18.94702
C         41.97268       14.85469       17.77881
N         43.29799       14.60140       17.89667
O         41.40695       14.64557       16.71630
H         42.48635       17.77978       18.93802
H         39.88014       16.70211       17.81567
H         40.37659       14.68314       19.19922
H         41.86131       15.48115       19.82773
H         43.79487       14.77716       18.78267
H         43.83415       14.23364       17.09737
N         40.16208       18.39722       20.56083
C         39.34911       18.89395       21.67681
C         39.80386       20.26462       22.13507
O         40.93606       20.61510       21.84682
C         39.43436       18.01931       22.97381
C         39.65884       16.53970       22.84347
C         38.64429       15.62131       23.14495
C         40.93347       16.06731       22.48173
C         38.89711       14.24793       23.06562
C         41.18666       14.69730       22.41531
C         40.17113       13.78248       22.70297
O         40.43282       12.46240       22.63498
H         40.97668       18.94147       20.24412
H         38.30311       18.96012       21.30099
H         38.53149       18.23616       23.58524
H         40.29518       18.34717       23.60369
H         37.66132       15.96777       23.43768
H         41.73634       16.76388       22.26772
H         38.10520       13.54732       23.29440
H         42.17575       14.34896       22.14431
H         39.76131       11.79484       22.83273
N         39.04548       20.97437       23.02741
C         39.50995       22.09420       23.85033
C         39.66506       23.42781       23.11668
O         39.02742       24.38816       23.52787
C         40.76303       21.65114       24.64111
C         41.14767       22.60637       25.77315
C         42.25264       22.00663       26.59850
O         42.04600       21.73184       27.90107
O         43.33321       21.74820       26.09222
H         38.11551       20.59400       23.26488
H         38.71868       22.26385       24.61679
H         41.63666       21.51068       23.97156
H         40.51985       20.66856       25.10702
H         40.26514       22.76804       26.42945
H         41.47324       23.58471       25.36108
N         40.49691       23.58257       22.05093
C         40.74587       24.84970       21.37268
C         39.49913       25.42834       20.71117
O         39.57309       26.55764       20.24575
C         41.84848       24.67273       20.28973
C         43.16307       24.01917       20.78056
C         43.90836       24.85874       21.77139
O         43.41205       25.16745       22.84108
O         45.17023       25.21338       21.48350
H         41.01075       22.77798       21.72474
H         41.09369       25.57615       22.13708
H         42.08390       25.65986       19.83260
H         41.44087       24.01715       19.48886
H         43.81423       23.85367       19.89860
H         43.00626       23.01230       21.20739
N         38.33128       24.72538       20.61424
C         37.12657       25.25600       20.00966
H         36.30831       25.24484       20.76007
H         37.25320       26.29736       19.64726
H         36.83458       24.61611       19.15117
H         38.27161       23.76170       20.96871
Ca        46.43955       26.77866       22.41439
O         49.44674       26.33796       22.97751
H         49.42251       27.23161       22.55329
H         50.35112       25.98700       22.77975
O         44.37807       27.70731       24.64749
H         43.49455       27.97110       24.28736
H         44.39962       26.72180       24.56310
O         46.40616       24.50239       24.38214
H         46.00120       23.61203       24.53277
H         47.12382       24.56529       25.06032
O         48.10323       27.01769       25.69055
H         47.78482       27.85736       26.10675
H         48.07377       26.35174       26.42263

Ca 1.0



