%chk=apoCaM-CA-Ng.loop3.water6.frame52.chk
%nprocshared=20
%mem=10GB
%nosave
#b3lyp/svp scf=(tight,noincore,xqc) Test 
#IOP(5/87=12) Density=Current Pop=(MK,readradii) iop(6/33=2) iop(6/42=6)

apoCaM-CA-Ng.loop3.water6.frame52 

   0  1 
C         56.65191       49.39814       36.38705
C         55.81415       49.00996       35.20553
O         55.34582       47.88313       35.14200
H         57.66757       49.68556       36.03894
H         56.18994       50.26455       36.90521
H         56.74660       48.55511       37.10322
N         55.60563       49.91264       34.20891
C         54.85451       49.65664       32.98502
C         55.49690       48.53765       32.17626
O         54.80206       47.64674       31.70886
C         53.35512       49.38383       33.27114
C         52.64746       50.49601       34.00214
O         53.22897       51.52060       34.32257
O         51.34236       50.35650       34.30355
H         56.03258       50.84777       34.30692
H         54.92067       50.57428       32.35856
H         53.25649       48.45415       33.86649
H         52.82325       49.22734       32.30812
N         56.84760       48.52205       31.99212
C         57.53452       47.51847       31.18321
C         58.20921       46.45934       32.04652
O         58.86734       45.58729       31.48916
C         58.54228       48.21931       30.24791
C         57.85490       49.27874       29.36564
C         58.77750       49.89288       28.30180
C         59.98178       50.65052       28.88235
N         60.76695       51.26483       27.81112
H         57.42321       49.23399       32.46664
H         56.80753       46.96906       30.54598
H         59.01310       47.45282       29.59409
H         59.33607       48.69976       30.85978
H         57.44217       50.09186       30.00260
H         57.00870       48.79743       28.82907
H         58.16817       50.60614       27.70449
H         59.13747       49.09059       27.62203
H         60.63438       49.95202       29.44873
H         59.62625       51.44441       29.57604
H         60.18279       51.95918       27.29050
H         61.58936       51.75948       28.22578
H         61.11157       50.53077       27.15020
N         58.05029       46.42661       33.40058
C         58.62727       45.39917       34.26749
C         58.09609       44.00668       33.91123
O         57.18182       43.89633       33.10736
C         58.28054       45.76627       35.73498
C         58.90755       44.88552       36.77081
O         58.20512       44.27370       37.55716
O         60.24696       44.79340       36.86083
H         57.48944       47.16547       33.84702
H         59.73023       45.41644       34.12794
H         57.17248       45.75252       35.85703
H         58.63172       46.80091       35.93823
N         58.64383       42.88657       34.47011
C         58.13724       41.54222       34.22579
C         56.81267       41.26522       34.91525
O         56.29738       40.16822       34.75033
H         59.47265       42.97968       35.07111
H         58.85994       40.80196       34.62811
H         58.05295       41.37154       33.13057
N         56.20629       42.19421       35.70810
C         54.93100       41.99900       36.37912
C         53.88181       42.93093       35.78310
O         52.74988       42.89577       36.24719
C         55.09965       42.28285       37.89338
C         56.01522       41.29360       38.63855
N         55.42747       39.96167       38.72131
O         57.27927       41.22217       38.04712
H         56.64720       43.11185       35.84598
H         54.55155       40.96210       36.24429
H         54.10917       42.25274       38.39095
H         55.50278       43.31006       38.02797
H         54.52855       40.03114       39.25157
H         56.06520       39.36464       39.29615
N         54.16597       43.78193       34.74390
C         53.18039       44.66971       34.15472
C         52.67763       45.71587       35.12177
O         51.66954       46.33484       34.81700
H         55.09858       43.79859       34.32298
H         52.32452       44.04416       33.81873
H         53.59899       45.18602       33.26427
N         53.27964       45.92448       36.33043
C         52.64759       46.70374       37.38122
C         53.36414       46.44693       38.69123
O         54.57386       46.60420       38.77192
C         52.51801       48.21476       37.09876
C         51.32297       48.72285       37.87850
C         50.03643       48.30305       37.48310
C         51.45292       49.56163       38.99462
C         48.90557       48.69952       38.19214
C         50.31245       49.95303       39.71262
C         49.03642       49.51956       39.31284
O         47.93101       49.87785       39.99640
H         54.13906       45.40585       36.56037
H         51.62640       46.26988       37.45676
H         52.30264       48.42335       36.03458
H         53.47064       48.72930       37.35321
H         49.91007       47.65777       36.62163
H         52.43026       49.88939       39.32373
H         47.92788       48.35908       37.87236
H         50.41985       50.58527       40.58405
H         47.96910       50.43303       40.78719
N         52.65268       45.93971       39.72413
C         53.23048       45.33481       40.91493
C         52.89308       43.85347       40.81712
O         53.79219       43.02555       40.86656
C         52.68813       46.00926       42.20200
C         52.91247       47.54748       42.20200
C         53.30614       45.36453       43.45759
C         54.37414       48.00357       42.10912
H         51.63263       45.90160       39.60699
H         54.33767       45.43274       40.91920
H         51.58829       45.84983       42.25070
H         52.47414       47.97330       43.13078
H         52.36109       47.99227       41.34677
H         52.90295       45.84385       44.37485
H         53.06029       44.28287       43.50412
H         54.41204       45.46364       43.45963
H         54.41082       49.11351       42.11612
H         54.96899       47.63689       42.96952
H         54.84416       47.66128       41.16647
N         51.61662       43.46974       40.52514
C         51.24551       42.12032       40.14139
C         51.15833       41.21622       41.33644
O         51.50520       40.05044       41.20945
C         49.89152       42.14037       39.40935
O         49.56472       40.85090       38.96719
H         50.88151       44.18602       40.45471
H         51.97299       41.72511       39.39596
H         49.98534       42.81529       38.52610
H         49.09474       42.52250       40.08535
H         48.73217       40.94424       38.43523
N         50.65194       41.67478       42.52226
C         50.37926       40.81549       43.66648
C         51.60452       40.04557       44.15250
O         51.42489       39.11827       44.93130
C         49.23478       39.85867       43.28836
H         50.39781       42.67042       42.60919
H         49.99551       41.43258       44.50878
H         48.35158       40.44815       42.95728
H         49.52332       39.17106       42.46721
H         48.92825       39.25122       44.16520
N         52.87276       40.35255       43.74176
C         54.02440       39.50664       44.02568
C         55.03572       40.20341       44.91230
O         55.52781       41.26433       44.55353
C         54.67608       39.09589       42.70308
H         53.03635       41.19151       43.16513
H         53.70236       38.56784       44.52607
H         53.93919       38.55447       42.07201
H         55.03111       39.98907       42.14399
H         55.53955       38.42367       42.89346
N         55.39363       39.62648       46.09801
C         56.39774       40.12410       47.03286
C         56.11389       41.55142       47.45785
O         56.97235       42.41496       47.34182
C         57.84978       39.83303       46.55842
C         58.33996       40.53659       45.28306
C         59.76639       40.16040       44.99154
O         60.06241       38.99774       44.76448
O         60.72482       41.10640       44.96871
H         54.90973       38.75982       46.37946
H         56.30238       39.51180       47.95844
H         57.93652       38.73426       46.40266
H         58.53696       40.10792       47.38961
H         58.28292       41.63723       45.40691
H         57.73035       40.23507       44.40991
N         54.90330       41.86084       47.99475
C         54.57941       43.19700       48.44182
H         53.54412       43.22014       48.84277
H         55.27988       43.50602       49.24693
H         54.65104       43.90909       47.59260
H         54.18915       41.12320       48.09415
Ca        58.71330       42.24661       39.48896
O         60.46369       39.85063       40.11390
H         59.53889       39.68051       40.42446
H         60.65872       39.10137       39.49707
O         58.74662       41.72189       42.33043
H         57.88444       42.20197       42.25192
H         59.37074       42.39067       42.70856
O         60.25687       44.82933       40.71846
H         60.71194       45.62789       40.35013
H         60.89354       44.46507       41.38369
O         62.08017       43.16074       38.57723
H         62.77651       43.62875       38.05121
H         62.47105       43.06829       39.48196
O         56.99083       44.57371       40.58204
H         56.45347       43.75334       40.71679
H         56.63989       44.96316       39.74252
O         60.31160       41.14812       36.98643
H         60.08304       40.20349       37.17404
H         60.80722       41.11764       36.12996

Ca 1.0



