%chk=apoCaM-CA-Ng.loop4.water3.frame322.chk
%nprocshared=20
%mem=10GB
%nosave
#b3lyp/svp scf=(tight,noincore,xqc) Test 
#IOP(5/87=12) Density=Current Pop=(MK,readradii) iop(6/33=2) iop(6/42=6)

apoCaM-CA-Ng.loop4.water3.frame322 

   -3  1 
C         42.12149       65.08642       32.78224
C         42.89180       64.25403       31.75784
O         43.76321       65.11777       31.09912
H         41.43894       64.44343       33.37468
H         42.83590       65.57743       33.47657
H         41.52889       65.87210       32.26421
N         41.97502       63.59884       30.79998
C         42.51577       62.37742       30.14791
C         43.53797       61.58403       30.96474
O         44.64304       61.36020       30.50622
C         42.77783       62.53703       28.61767
C         43.56840       63.68444       28.01417
O         44.86253       63.92507       28.28948
O         43.03065       64.37121       27.15936
H         41.13030       63.29235       31.33997
H         41.68345       61.63200       30.11077
H         41.76890       62.61319       28.14982
H         43.21461       61.58474       28.24643
N         43.14025       61.03079       32.15104
C         43.88716       60.11799       33.02620
C         44.26291       58.83176       32.28356
O         43.57358       57.83868       32.47022
C         45.07374       60.78863       33.78255
C         45.66340       59.86669       34.89252
C         44.67011       62.14638       34.38234
C         44.73241       59.55142       36.07111
H         42.17069       61.22748       32.44663
H         43.14786       59.83226       33.80596
H         45.88409       61.00334       33.05477
H         46.57261       60.35349       35.30524
H         45.96465       58.89625       34.45867
H         45.53336       62.60429       34.91180
H         44.36567       62.84522       33.57972
H         43.82014       62.04429       35.08762
H         43.83031       58.99787       35.74306
H         45.27287       58.90813       36.79763
H         44.42839       60.47315       36.60599
N         45.32087       58.77927       31.41496
C         45.59153       57.64955       30.52698
C         46.88349       56.85323       30.79730
O         46.93474       55.74191       30.28781
C         45.59633       58.18983       29.07648
C         45.73524       57.12381       28.02607
O         46.79284       57.13472       27.19146
O         44.88750       56.25302       27.91584
H         45.90826       59.61005       31.31604
H         44.76118       56.91577       30.62634
H         46.43954       58.91002       28.97193
H         44.65155       58.74262       28.88301
N         47.98566       57.26553       31.49528
C         48.16763       58.55869       32.11791
C         49.56329       58.69613       32.69341
O         49.89203       57.90021       33.56148
H         48.77613       56.60148       31.54164
H         47.44136       58.67876       32.93281
H         47.98522       59.32784       31.37361
N         50.46635       59.65538       32.31104
C         50.26837       60.71526       31.32049
C         49.12558       61.62911       31.77462
O         48.11585       61.71158       31.08966
C         50.15756       60.12088       29.88884
C         50.22570       61.15811       28.79796
O         50.20677       60.80022       27.63137
O         50.33203       62.47078       29.08171
H         51.38279       59.64611       32.78600
H         51.19649       61.32484       31.27700
H         49.24445       59.52087       29.73304
H         51.02447       59.44126       29.73907
N         49.17689       62.32643       32.95229
C         50.36133       62.43819       33.79201
C         50.23255       61.70241       35.09842
O         49.18786       61.14234       35.39823
H         48.33760       62.84124       33.25602
H         50.58271       63.51193       33.97315
H         51.25068       62.01958       33.29396
N         51.33497       61.60145       35.89454
C         51.38255       60.78046       37.09864
C         50.50068       61.25947       38.23945
O         50.36527       60.50938       39.19706
C         52.83242       60.58287       37.60728
C         53.54558       61.78163       38.27701
C         53.90493       62.91467       37.34778
N         55.18453       63.08091       36.93618
O         53.04623       63.70004       36.97671
H         52.20278       62.02555       35.54244
H         51.02149       59.77285       36.79109
H         53.46509       60.19581       36.77838
H         52.79186       59.78287       38.37917
H         54.49288       61.36600       38.68245
H         52.97714       62.17155       39.14892
H         55.92559       62.42905       37.23304
H         55.43529       63.85150       36.29958
N         49.89056       62.47918       38.23743
C         49.04455       62.94001       39.33742
C         49.60308       64.18764       40.01885
O         48.95295       64.65425       40.94412
C         47.58175       63.15783       38.85789
C         46.96251       61.84791       38.34794
C         47.47303       64.24277       37.78548
H         50.03289       63.11037       37.43671
H         48.99071       62.17079       40.13968
H         46.97561       63.48409       39.73247
H         45.90090       62.01189       38.06489
H         47.50781       61.46554       37.46104
H         46.99042       61.07427       39.14459
H         47.88931       65.19751       38.16740
H         48.02162       63.94216       36.87302
H         46.40902       64.41001       37.51417
N         50.80360       64.75498       39.67462
C         51.36273       65.90069       40.39738
C         51.71111       67.09247       39.50810
O         52.03017       68.13224       40.07042
C         52.64971       65.46121       41.12929
C         52.42413       64.29802       42.06275
N         51.58752       64.40598       43.12050
O         53.01525       63.24673       41.86536
H         51.37573       64.32284       38.93810
H         50.63318       66.26866       41.15035
H         53.06416       66.30823       41.71858
H         53.40825       65.17010       40.36728
H         51.08706       65.28561       43.31137
H         51.44460       63.60666       43.75567
N         51.78241       67.01234       38.14577
C         52.31831       68.09433       37.32069
C         51.46793       68.36224       36.09427
O         51.23788       67.44909       35.31330
C         53.73999       67.71394       36.85391
C         54.74992       67.77758       37.97590
C         55.04421       69.01368       38.58053
C         55.43005       66.62846       38.40705
C         56.00188       69.09840       39.59314
C         56.38707       66.71424       39.42473
C         56.67915       67.94786       40.01796
O         57.61364       68.01749       40.98753
H         51.58581       66.11693       37.67777
H         52.39855       69.04267       37.89313
H         54.09344       68.42996       36.08084
H         53.71082       66.70496       36.38493
H         54.54261       69.91772       38.25811
H         55.22352       65.66902       37.95627
H         56.22079       70.06008       40.04065
H         56.90796       65.82191       39.74769
H         57.85310       68.85442       41.41140
N         51.06424       69.64034       35.81423
C         50.45335       70.06488       34.55429
C         49.06429       69.49116       34.31021
O         48.52039       69.73167       33.24100
C         51.41330       69.79655       33.36450
C         52.80108       70.44299       33.55251
C         52.72685       71.93682       33.70683
O         53.18330       72.52147       34.83131
O         52.25773       72.62658       32.81570
H         51.28472       70.38704       36.49086
H         50.30741       71.16704       34.59395
H         50.96387       70.19896       32.43028
H         51.55322       68.70594       33.21659
H         53.43380       70.20983       32.66965
H         53.29651       70.00828       34.44536
N         48.39179       68.80167       35.27403
C         47.03282       68.29763       35.11063
C         46.05398       69.02895       36.01796
O         44.87933       68.68724       35.97873
C         47.02147       66.79151       35.43360
C         47.78917       65.92312       34.42674
C         47.04689       65.78842       33.12973
O         46.87656       66.74549       32.39299
O         46.55180       64.58847       32.78314
H         48.83259       68.65589       36.19338
H         46.65407       68.46845       34.08315
H         45.98164       66.39913       35.48934
H         47.47842       66.67256       36.43662
H         47.86304       64.90400       34.85463
H         48.82304       66.29330       34.26099
N         46.43625       70.05747       36.83140
C         45.51055       70.78272       37.67849
H         44.46985       70.40413       37.59721
H         45.83334       70.69270       38.73605
H         45.51306       71.85436       37.38895
H         47.41751       70.36665       36.85891
Ca        45.48837       63.86392       30.38906
O         46.93007       61.91373       28.25764
H         46.06878       61.57458       27.90729
H         47.61198       61.45631       27.70743
O         46.77795       66.28158       28.80097
H         47.71106       66.36212       28.48001
H         46.71599       66.92512       29.55067
O         48.88465       64.84931       30.80180
H         49.83143       65.08015       30.62978
H         48.61596       64.29204       30.02919

Ca 1.0



