%chk=apoCaM-CA-Ng.loop1.water7.frame1022.chk
%nprocshared=20
%mem=10GB
%nosave
#b3lyp/svp scf=(tight,noincore,xqc) Test 
#IOP(5/87=12) Density=Current Pop=(MK,readradii) iop(6/33=2) iop(6/42=6)

apoCaM-CA-Ng.loop1.water7.frame1022 

   0  1 
C         36.63339       38.67576       73.60689
C         36.24621       40.10885       73.81406
O         36.02916       40.81620       72.83976
H         37.63167       38.49121       74.05583
H         35.88534       38.01439       74.09170
H         36.67791       38.43207       72.52362
N         36.13575       40.60880       75.07705
C         35.76056       41.99250       75.34346
C         36.79476       42.93096       74.75623
O         37.95797       42.86328       75.12966
C         35.61386       42.25686       76.85397
C         34.52224       41.42010       77.46046
O         34.80643       40.55415       78.45128
O         33.37169       41.52960       77.06622
H         36.31604       39.97429       75.87068
H         34.76956       42.18679       74.87433
H         35.35322       43.32385       77.01675
H         36.57736       42.04941       77.36869
N         36.42366       43.82603       73.80253
C         37.34986       44.73616       73.14390
C         38.04815       45.66967       74.11900
O         39.27092       45.68977       74.07522
C         36.65623       45.52455       72.00523
C         36.11557       44.61731       70.87249
C         37.22090       43.87278       70.09306
C         36.67202       42.86778       69.06645
N         35.84679       43.49516       68.03522
H         35.43284       43.84329       73.51860
H         38.15498       44.13780       72.67483
H         37.37676       46.24334       71.55572
H         35.81339       46.11233       72.42714
H         35.57037       45.26532       70.15659
H         35.39419       43.88450       71.28772
H         37.84248       43.26708       70.77886
H         37.88015       44.61353       69.58942
H         36.07996       42.08640       69.59324
H         37.53869       42.36604       68.58007
H         34.97385       43.88914       68.45218
H         36.38658       44.24469       67.54576
H         35.57129       42.76493       67.33917
N         37.43562       46.47439       75.03496
C         36.01400       46.54783       75.36936
C         35.83791       46.14856       76.83480
O         36.83097       45.82308       77.47390
C         35.46566       47.96598       75.08915
C         36.22383       49.06681       75.78442
O         35.63395       49.79390       76.74697
O         37.36778       49.33388       75.45464
H         38.06733       47.05333       75.60960
H         35.41166       45.84826       74.76337
H         34.39965       47.99969       75.39840
H         35.49157       48.16743       73.99713
N         34.61051       46.13697       77.44131
C         34.43997       45.73197       78.83196
C         33.96117       46.86923       79.69825
O         32.99441       46.69945       80.42703
H         33.77204       46.41562       76.91130
H         35.40278       45.39821       79.27248
H         33.74440       44.86662       78.89167
N         34.63341       48.05539       79.69623
C         34.38251       49.16091       80.61648
C         32.91715       49.61871       80.63038
O         32.29965       49.58785       81.68592
C         34.88920       48.77206       82.02548
C         36.34681       48.39340       82.00142
O         36.72970       47.15911       82.38044
O         37.18816       49.20036       81.63841
H         35.40779       48.17529       79.02615
H         35.00080       50.02864       80.29500
H         34.29861       47.91686       82.41846
H         34.76520       49.63154       82.71951
N         32.27469       50.08545       79.52115
C         32.91020       50.14713       78.22095
C         32.03153       50.69493       77.11723
O         30.89861       51.09863       77.34157
H         31.29616       50.39530       79.62577
H         33.19247       49.11698       77.92010
H         33.81915       50.77818       78.28308
N         32.52790       50.67476       75.85233
C         31.79543       51.07780       74.65334
C         32.50650       50.53235       73.41099
O         33.68385       50.21192       73.48499
C         31.57466       52.61504       74.63289
C         30.71056       53.10666       73.46407
O         32.80186       53.29875       74.66145
H         33.46527       50.26947       75.75120
H         30.81205       50.55706       74.69023
H         31.02203       52.89354       75.55489
H         33.23446       53.17775       73.77675
H         30.54926       54.20209       73.55815
H         31.20623       52.91501       72.49001
H         29.72132       52.60278       73.47985
N         31.80075       50.25744       72.27594
C         32.31932       49.48071       71.14733
C         33.47834       50.16491       70.43654
O         34.52204       50.38871       71.03196
C         32.68904       48.03037       71.59652
C         31.50458       47.31041       72.29611
C         33.22156       47.18768       70.42575
C         30.25723       47.11524       71.42643
H         30.80365       50.51974       72.24262
H         31.49673       49.38659       70.40811
H         33.51222       48.07296       72.34009
H         31.21028       47.87997       73.20354
H         31.85023       46.31034       72.63723
H         34.16443       47.62337       70.03877
H         33.45314       46.16016       70.77400
H         32.48934       47.13449       69.59430
H         30.48644       46.50896       70.52671
H         29.48436       46.57678       72.01302
H         29.82438       48.08774       71.11639
N         33.35866       50.47833       69.11616
C         34.41830       51.09143       68.32856
C         34.02147       52.48083       67.86212
O         34.79526       53.05266       67.11514
C         34.81671       50.17947       67.13401
C         33.69979       49.95464       66.09992
O         35.31865       48.95173       67.59881
H         32.46808       50.27615       68.63826
H         35.33961       51.22507       68.93821
H         35.65009       50.67846       66.59149
H         34.54946       48.40665       67.90492
H         34.09185       49.33823       65.26310
H         32.83606       49.42084       66.54595
H         33.35135       50.92269       65.68338
N         32.86574       53.09307       68.27618
C         32.45747       54.45498       67.91109
C         33.49689       55.45930       68.40106
O         33.37557       55.97336       69.50480
C         31.04831       54.77409       68.49427
C         29.96157       53.88296       67.87320
O         31.05489       54.60404       69.89110
H         32.24573       52.57557       68.91270
H         32.37871       54.54114       66.80454
H         30.80786       55.83389       68.24493
H         30.23846       55.04505       70.24373
H         29.92984       54.02783       66.77306
H         30.13911       52.80877       68.08813
H         28.96854       54.15565       68.28961
N         34.60965       55.69820       67.64663
C         35.78019       56.45694       68.07145
C         36.42222       55.86505       69.32067
O         35.83135       55.02463       69.98483
C         35.46627       57.95879       68.20557
C         35.07956       58.53985       66.83153
C         34.79154       60.04841       66.85876
C         33.54535       60.45484       67.66625
N         32.31690       59.87124       67.12154
H         34.66462       55.28268       66.70688
H         36.54466       56.34588       67.26863
H         36.37206       58.49626       68.56138
H         34.65933       58.10973       68.95079
H         34.21195       57.99762       66.40265
H         35.93793       58.38032       66.14203
H         34.65105       60.39322       65.81099
H         35.67967       60.57610       67.26965
H         33.46237       61.56332       67.62164
H         33.65669       60.17232       68.73432
H         32.21673       60.11714       66.10957
H         32.31491       58.83328       67.23903
H         31.49714       60.25725       67.64261
N         37.69612       56.21806       69.64930
C         38.41332       55.67366       70.79872
C         38.38869       54.14303       70.82000
O         37.91605       53.61306       71.81524
C         39.85361       56.24038       70.85349
C         40.63702       55.76977       72.08770
C         42.01175       56.37573       72.10607
O         42.15051       57.58754       72.16143
O         43.09981       55.58309       72.06525
H         38.18574       56.88713       69.03463
H         37.89528       56.02969       71.71889
H         39.78499       57.35061       70.87713
H         40.42674       55.95808       69.94798
H         40.73416       54.66277       72.06795
H         40.09976       56.06265       73.01500
N         38.83852       53.33211       69.81684
C         39.36723       53.75645       68.53811
H         40.40574       53.38106       68.42911
H         38.74324       53.32009       67.73004
H         39.36740       54.84807       68.39754
H         38.77974       52.31198       69.96365
Ca        37.63495       52.03684       76.94296
O         38.21141       49.23824       78.33454
H         38.69272       49.40456       79.18272
H         37.84265       48.32473       78.42998
O         35.35875       52.96865       78.85410
H         35.34819       52.52221       79.73782
H         34.40969       53.18405       78.67217
O         37.56762       55.11801       76.71707
H         38.50869       54.95406       76.45633
H         37.52523       54.85212       77.67004
O         38.49748       52.27044       79.85025
H         39.46677       52.39772       80.00610
H         38.14384       53.18694       79.72644
O         39.43998       52.66532       74.33262
H         39.44090       53.65502       74.35764
H         38.48453       52.42008       74.25018
O         35.79677       52.82761       74.58363
H         35.38819       52.00208       74.94648
H         35.74081       52.72014       73.60101
O         40.61064       51.08955       76.73302
H         40.44386       50.11967       76.84110
H         40.57862       51.45187       77.65394

Ca 1.0



