%chk=apoCaM-CA-Ng.loop1.water1.frame783.chk
%nprocshared=20
%mem=10GB
%nosave
#b3lyp/svp scf=(tight,noincore,xqc) Test 
#IOP(5/87=12) Density=Current Pop=(MK,readradii) iop(6/33=2) iop(6/42=6)

apoCaM-CA-Ng.loop1.water1.frame783 

   0  1 
C        112.92989        9.77730       23.39958
C        112.80216        8.41698       24.01316
O        113.72938        7.96968       24.67336
H        113.91745       10.22610       23.63912
H        112.83706        9.69134       22.29609
H        112.12673       10.43885       23.78428
N        111.67032        7.68851       23.80863
C        111.48513        6.33261       24.30886
C        111.44589        5.33384       23.16831
O        111.24658        5.70759       22.02110
C        110.26772        6.21480       25.26326
C        109.12553        7.19375       25.04034
O        108.41984        7.30165       23.89421
O        108.83490        7.95174       25.95269
H        110.92293        8.09938       23.22994
H        112.37949        6.02035       24.89341
H        110.64760        6.44283       26.28505
H        109.90556        5.16433       25.30105
N        111.78633        4.03660       23.42121
C        111.93633        3.03269       22.37771
C        110.58514        2.44338       22.04146
O        109.83490        2.13034       22.95647
C        112.87915        1.90244       22.84626
C        113.34021        1.02877       21.66169
C        114.18580       -0.15529       22.13638
C        114.72622       -0.95778       20.94433
N        115.48142       -2.12362       21.40064
H        112.05879        3.78353       24.38445
H        112.43795        3.49506       21.49668
H        112.37695        1.29432       23.63114
H        113.79680        2.34917       23.28938
H        113.93872        1.66297       20.96984
H        112.47558        0.63327       21.09289
H        113.55195       -0.81265       22.77125
H        115.04320        0.21210       22.74122
H        115.39024       -0.30441       20.33427
H        113.88397       -1.29880       20.30154
H        116.27351       -1.82467       22.01485
H        114.85077       -2.77108       21.92721
H        115.86736       -2.62888       20.57059
N        110.24018        2.18931       20.75191
C        108.97292        1.58137       20.36111
C        109.23190        0.23994       19.69043
O        109.02410        0.12606       18.49146
C        108.21458        2.58905       19.47214
C        107.90890        3.79618       20.30850
O        107.20051        3.68374       21.29730
O        108.50143        4.97496       20.06238
H        110.90886        2.43105       20.00360
H        108.31203        1.37546       21.23059
H        107.25866        2.15894       19.10215
H        108.84246        2.87001       18.59786
N        109.64943       -0.85871       20.39410
C        109.84207       -0.86983       21.83444
C        110.21678       -2.23713       22.36872
O        111.23462       -2.77980       21.96224
H        109.80025       -1.73569       19.88246
H        108.90980       -0.52987       22.33114
H        110.65805       -0.18130       22.10368
N        109.46852       -2.81284       23.35680
C        109.85589       -4.04484       24.04570
C        109.76570       -5.31130       23.20340
O        110.28843       -6.32511       23.64554
C        109.02552       -4.23049       25.33818
C        107.53742       -4.39902       25.12484
O        106.73657       -4.56513       26.19353
O        107.04380       -4.38326       24.00768
H        108.65278       -2.28874       23.70829
H        110.91749       -3.91861       24.35721
H        109.18206       -3.34299       25.98813
H        109.40152       -5.12181       25.88545
N        109.09651       -5.35351       22.01831
C        108.99281       -6.55716       21.20161
C        109.62034       -6.36439       19.84034
O        109.53964       -7.27146       19.02420
H        108.62329       -4.50456       21.67412
H        107.91571       -6.79834       21.07307
H        109.48226       -7.43093       21.68188
N        110.24967       -5.20118       19.51949
C        110.81312       -4.89112       18.21938
C        109.99342       -3.76034       17.62565
O        109.05905       -3.29208       18.26438
C        112.31136       -4.52534       18.41594
C        113.11453       -5.74482       18.87426
O        112.89170       -4.05264       17.22863
H        110.31513       -4.44655       20.21443
H        110.72587       -5.75096       17.51837
H        112.39484       -3.74672       19.21475
H        112.91654       -3.06068       17.28995
H        114.17599       -5.45884       19.03239
H        112.71560       -6.15541       19.82508
H        113.07592       -6.53766       18.09548
N        110.24509       -3.29822       16.37442
C        109.45230       -2.23531       15.77028
C        108.00986       -2.70590       15.65385
O        107.10831       -1.92361       15.91867
C        110.03249       -1.78942       14.39478
C        111.51237       -1.32659       14.54825
C        109.18044       -0.63590       13.81725
C        112.20638       -1.04761       13.21476
H        110.99184       -3.74515       15.82661
H        109.49366       -1.34033       16.42902
H        109.99504       -2.65785       13.70076
H        112.12092       -2.11487       15.03037
H        111.56734       -0.42480       15.19723
H        109.54332       -0.31271       12.82329
H        108.12538       -0.94575       13.67642
H        109.20091        0.23935       14.50442
H        112.18051       -1.95815       12.57852
H        111.74009       -0.20301       12.67229
H        113.26798       -0.78159       13.40335
N        107.73293       -4.00294       15.32695
C        106.38036       -4.53155       15.20264
C        106.18362       -5.08478       13.80089
O        107.10845       -5.05519       13.00038
C        106.08730       -5.57413       16.32041
C        106.93288       -6.85088       16.23458
O        106.28498       -4.96508       17.57152
H        108.51579       -4.65371       15.16345
H        105.63638       -3.71652       15.33665
H        105.01692       -5.87215       16.23181
H        105.77031       -5.49135       18.23891
H        106.63214       -7.54563       17.04948
H        106.75987       -7.36887       15.26811
H        108.01241       -6.62726       16.35126
N        104.98182       -5.60571       13.43960
C        104.69838       -6.14303       12.11608
C        103.51198       -5.41124       11.51168
O        103.62318       -4.88821       10.41142
C        104.45034       -7.67388       12.22158
C        104.13814       -8.30932       10.86315
O        103.39557       -7.96300       13.10618
H        104.23299       -5.63364       14.14476
H        105.57017       -6.01466       11.43536
H        105.39779       -8.14056       12.58753
H        103.78036       -8.41828       13.90013
H        104.01255       -9.40655       10.98255
H        103.19535       -7.89808       10.44300
H        104.96578       -8.12287       10.14708
N        102.32462       -5.39324       12.17196
C        101.06515       -4.92779       11.62091
C        100.46779       -3.86487       12.52535
O        100.32876       -4.10536       13.71769
C        100.17692       -6.18129       11.52894
C         98.72862       -5.95071       11.09135
C         98.01923       -7.31600       11.02592
C         96.50300       -7.22585       10.81936
N         96.14250       -6.63099        9.53428
H        102.27501       -5.82256       13.10697
H        101.18585       -4.51839       10.59289
H        100.15086       -6.67320       12.52740
H        100.66504       -6.88189       10.81351
H         98.69843       -5.44485       10.10281
H         98.22672       -5.30786       11.84643
H         98.17182       -7.84180       11.99438
H         98.47733       -7.93706       10.22386
H         96.04974       -6.64066       11.64964
H         96.09210       -8.25936       10.86469
H         96.46385       -5.63854        9.48486
H         96.55928       -7.18602        8.75212
H         95.10103       -6.64670        9.44187
N        100.04275       -2.67431       12.01035
C         99.40908       -1.64701       12.82987
C        100.39112       -1.05014       13.83506
O        100.11023       -1.15947       15.01995
C         98.71635       -0.57022       11.95639
C         97.92578        0.44352       12.80055
C         97.18832        1.41621       11.92523
O         97.80042        2.14602       11.16154
O         95.84504        1.49366       11.98621
H        100.11279       -2.52466       10.99182
H         98.57779       -2.13566       13.38973
H         98.00088       -1.09088       11.28138
H         99.43587       -0.02178       11.31987
H         98.61340        1.01147       13.46325
H         97.19124       -0.09864       13.43533
N        101.54506       -0.39396       13.50469
C        102.07290       -0.19323       12.16996
H        103.09432       -0.62314       12.11562
H        101.48044       -0.67541       11.37860
H        102.13337        0.89541       11.95866
H        102.11131       -0.00266       14.27376
Ca       108.51531        6.26620       21.90260
O        109.03039        9.71679       22.13413
H        109.06562        9.89926       23.10694
H        108.06554        9.73618       21.91308

Ca 1.0



