%chk=apoCaM-CA-Ng.loop1.water5.frame527.chk
%nprocshared=20
%mem=10GB
%nosave
#b3lyp/svp scf=(tight,noincore,xqc) Test 
#IOP(5/87=12) Density=Current Pop=(MK,readradii) iop(6/33=2) iop(6/42=6)

apoCaM-CA-Ng.loop1.water5.frame527 

   0  1 
C         90.01112       23.91815       42.31526
C         89.49281       24.93503       41.33837
O         90.29376       25.62351       40.72397
H         90.61211       24.42822       43.09694
H         89.18208       23.37198       42.81425
H         90.64946       23.18057       41.78622
N         88.15034       25.08224       41.14844
C         87.52187       26.05202       40.25313
C         87.86261       25.78824       38.78606
O         88.71359       24.95885       38.49524
C         87.84596       27.49157       40.71772
C         87.00609       28.53933       40.04479
O         85.66531       28.51563       40.17736
O         87.53205       29.42422       39.38930
H         87.51443       24.47438       41.68852
H         86.42358       25.89693       40.35868
H         88.92245       27.70871       40.55402
H         87.63935       27.56839       41.80709
N         87.14347       26.40255       37.80094
C         87.26475       26.11559       36.37511
C         87.08050       24.63492       36.13464
O         87.89159       24.00834       35.46649
C         88.56349       26.67270       35.75814
C         88.61818       28.19924       35.88344
C         89.75113       28.78796       35.03287
C         89.82086       30.32354       35.10659
N         88.58244       30.96558       34.65503
H         86.38016       27.03753       38.07006
H         86.41771       26.62158       35.85855
H         88.54804       26.41683       34.67486
H         89.46730       26.21209       36.21370
H         88.74076       28.48673       36.95036
H         87.65546       28.60124       35.50725
H         89.59925       28.49164       33.97106
H         90.72466       28.37179       35.37230
H         90.65721       30.65632       34.45260
H         90.04787       30.64428       36.14665
H         88.73226       31.99867       34.60583
H         88.31295       30.61701       33.70634
H         87.80743       30.79195       35.33403
N         86.00661       24.01664       36.69603
C         85.72883       22.59004       36.59592
C         84.41498       22.34293       37.35238
O         84.41538       22.59906       38.54890
C         86.89360       21.77006       37.22803
C         86.82122       20.28713       37.00173
O         85.95382       19.79338       36.30367
O         87.77482       19.49643       37.52831
H         85.35179       24.61055       37.23064
H         85.67518       22.35253       35.52027
H         86.94232       21.97779       38.31833
H         87.86779       22.06965       36.79702
N         83.23206       21.94877       36.78801
C         83.01656       21.54917       35.40869
C         82.36660       20.19064       35.38406
O         81.36483       20.00983       34.70699
H         82.40310       21.91990       37.40317
H         83.95379       21.47829       34.83768
H         82.35952       22.28649       34.89886
N         82.87387       19.19497       36.15808
C         82.34224       17.83734       36.20600
C         82.92937       17.09768       37.40963
O         84.05530       17.37735       37.80493
C         82.62848       17.10561       34.86710
C         84.11034       17.00945       34.63332
O         84.64377       17.62620       33.72469
O         84.85599       16.31075       35.50605
H         83.65463       19.44279       36.77708
H         81.24360       17.89957       36.36669
H         82.15835       17.67135       34.03340
H         82.18693       16.08658       34.87149
N         82.20571       16.15569       38.07308
C         82.73139       15.46788       39.24441
C         82.92280       16.37020       40.46109
O         83.42931       15.87864       41.45913
H         81.26893       15.90026       37.72606
H         83.69939       14.99559       38.97133
H         82.03163       14.65631       39.53715
N         82.50875       17.67297       40.48044
C         82.62047       18.54354       41.65315
C         84.06513       18.80166       42.04854
O         84.87740       19.11870       41.19166
C         81.86450       19.88157       41.45095
C         82.42540       20.76995       40.33566
O         80.51188       19.61939       41.17913
H         82.03642       18.05034       39.64962
H         82.10294       18.04580       42.50326
H         81.94094       20.47494       42.39361
H         80.08344       19.38901       42.04527
H         82.38412       20.26322       39.35029
H         81.82505       21.70179       40.27406
H         83.47169       21.06340       40.55174
N         84.43737       18.69631       43.35735
C         85.81037       18.88041       43.82659
C         86.36773       17.57415       44.36409
O         87.54445       17.54507       44.70899
C         85.90332       19.99991       44.91494
C         85.18007       19.60466       46.23682
C         85.38136       21.33469       44.35589
C         85.41908       20.58455       47.38864
H         83.71468       18.45747       44.05121
H         86.46200       19.17303       42.97424
H         86.98317       20.13303       45.15357
H         85.57002       18.62585       46.58869
H         84.08748       19.50060       46.07215
H         85.54119       22.16194       45.07658
H         85.92765       21.60027       43.42663
H         84.29601       21.26779       44.12843
H         84.99122       21.58333       47.17307
H         84.92723       20.19812       48.30704
H         86.50712       20.68251       47.59200
N         85.58293       16.46644       44.50665
C         86.04256       15.21698       45.08159
C         85.31957       15.00069       46.40096
O         84.39583       15.74945       46.70916
C         85.77456       14.07258       44.07283
C         86.39214       14.36188       42.69197
O         86.22744       12.83738       44.56544
H         84.58871       16.49142       44.23838
H         87.13192       15.27583       45.30221
H         84.67488       13.99436       43.91990
H         87.21987       12.84676       44.53636
H         87.49459       14.46742       42.76803
H         86.15077       13.53631       41.99064
H         85.97984       15.29986       42.26207
N         85.73916       14.05498       47.28136
C         85.13786       13.91782       48.60165
C         86.08442       13.21204       49.54656
O         86.39738       13.77851       50.58433
C         83.74718       13.22106       48.53567
C         83.03243       13.27840       49.89231
O         83.86378       11.87662       48.14689
H         86.57803       13.50262       47.04226
H         84.98187       14.94078       49.01859
H         83.08379       13.75918       47.82078
H         83.98962       11.86680       47.16340
H         82.87708       14.33555       50.19839
H         82.03763       12.78908       49.82080
H         83.61993       12.76022       50.67987
N         86.57028       11.96981       49.26014
C         87.36683       11.20474       50.20222
C         88.72921       10.86868       49.63034
O         88.80458       10.28502       48.55738
C         86.60851        9.90359       50.53318
C         87.22821        9.11560       51.70196
C         86.98217        9.81226       53.05160
C         87.56768        9.00887       54.21602
N         87.23821        9.64148       55.49331
H         86.32542       11.52437       48.36351
H         87.49667       11.78096       51.13717
H         86.59263        9.26551       49.62177
H         85.55115       10.13250       50.79194
H         88.31327        8.94777       51.52611
H         86.73037        8.12325       51.74386
H         85.88425        9.91353       53.19838
H         87.43254       10.82458       53.07296
H         88.67176        8.94713       54.10413
H         87.15908        7.97506       54.20563
H         87.68297        9.10136       56.26958
H         87.59263       10.62551       55.51623
H         86.20102        9.63971       55.63169
N         89.85258       11.12329       50.35828
C         91.16544       10.65663       49.95044
C         91.68846       11.44430       48.75671
O         92.02663       10.81379       47.76518
C         92.21411       10.60682       51.09813
C         91.84670        9.69324       52.29411
C         91.23808       10.41042       53.47685
O         90.15768       10.96581       53.40705
O         91.89678       10.41693       54.65214
H         89.74890       11.58713       51.26331
H         91.06651        9.58577       49.65257
H         92.56583       11.58622       51.46996
H         93.09910       10.12974       50.61787
H         92.79848        9.26769       52.67944
H         91.22121        8.83457       51.96492
N         91.80421       12.80566       48.73259
C         91.36324       13.69458       49.78824
H         90.26807       13.60036       49.93556
H         91.89508       13.49806       50.73543
H         91.56885       14.74702       49.50052
H         92.20141       13.24540       47.88762
Ca        86.96049       16.89295       36.01550
O         87.03020       16.63177       39.48344
H         86.35676       17.26656       39.83414
H         87.83513       16.79282       40.03718
O         88.37470       14.80544       34.77895
H         88.60565       14.11406       35.44832
H         87.41400       14.65526       34.58914
O         86.01120       14.29538       37.50276
H         85.91839       13.84978       38.38179
H         85.17244       14.07700       37.02391
O         88.42670       18.44918       34.13269
H         87.61579       18.33551       33.57560
H         88.32662       19.34761       34.53599
O         89.52064       16.71240       37.42726
H         89.73537       17.53303       37.93755
H         90.38752       16.41503       37.05379

Ca 1.0



