%chk=apoCaM-CA-Ng.loop4.water2.frame490.chk
%nprocshared=20
%mem=10GB
%nosave
#b3lyp/svp scf=(tight,noincore,xqc) Test 
#IOP(5/87=12) Density=Current Pop=(MK,readradii) iop(6/33=2) iop(6/42=6)

apoCaM-CA-Ng.loop4.water2.frame490 

   -3  1 
C         51.88142       61.85282       97.47334
C         50.97827       62.46444       98.53710
O         49.76839       61.76888       98.53593
H         52.84136       62.40668       97.42232
H         52.08738       60.78761       97.71732
H         51.38448       61.90473       96.48199
N         51.63246       62.38960       99.85305
C         50.84372       62.90816      100.98848
C         49.64751       62.01755      101.27972
O         48.51320       62.45768      101.20223
C         50.62346       64.44823      100.94765
C         49.83851       65.00655       99.79677
O         48.52607       64.74791       99.67805
O         50.37476       65.76664       99.00523
H         52.53124       62.92444       99.80630
H         51.47472       62.78934      101.89796
H         51.63352       64.91552      100.93146
H         50.13093       64.77466      101.88988
N         49.88924       60.73343      101.68843
C         48.91172       59.74574      102.14866
C         48.16395       60.30830      103.35104
O         48.60458       60.06759      104.46643
C         48.03547       59.15859      101.00338
C         47.06619       58.04840      101.49693
C         48.91650       58.62010       99.85857
C         47.73739       56.80875      102.10632
H         50.87801       60.44513      101.75358
H         49.52294       58.89690      102.52734
H         47.41850       59.97135      100.57097
H         46.45750       57.70768      100.63356
H         46.36983       58.47378      102.25009
H         48.28305       58.21570       99.03961
H         49.54152       59.42726       99.43179
H         49.60175       57.82209      100.21010
H         48.40377       56.30640      101.37579
H         48.31641       57.06803      103.01540
H         46.95720       56.07638      102.40176
N         47.08923       61.13633      103.20354
C         46.57929       61.98099      104.27482
C         45.30880       61.42993      104.93866
O         45.38057       61.25046      106.14688
C         46.51215       63.43678      103.76921
C         46.20360       64.41600      104.86581
O         45.22646       65.14240      104.78865
O         47.03157       64.52426      105.92305
H         46.71287       61.29353      102.26351
H         47.34573       62.01717      105.08372
H         45.79337       63.52760      102.93838
H         47.50510       63.71696      103.35473
N         44.13321       61.07683      104.32523
C         43.82036       61.10956      102.90737
C         43.44304       62.49257      102.40963
O         43.40929       63.41830      103.20731
H         43.40769       60.65691      104.92861
H         42.91723       60.48320      102.74138
H         44.63464       60.62352      102.35075
N         43.08475       62.73512      101.11020
C         43.01618       61.71492      100.05902
C         44.37816       61.08238       99.80432
O         45.37238       61.65845      100.22059
C         42.42351       62.32466       98.76074
C         43.25124       63.45237       98.20342
O         44.39082       63.25170       97.81496
O         42.72599       64.68881       98.11023
H         42.81010       63.70190      100.87439
H         42.32466       60.92513      100.42492
H         41.40644       62.70742       98.99543
H         42.31145       61.56797       97.96165
N         44.54350       59.87834       99.18422
C         43.49894       59.05385       98.60281
C         43.33438       57.76112       99.35141
O         43.88843       57.60336      100.43055
H         45.49815       59.49525       99.12765
H         43.79014       58.84250       97.55125
H         42.50576       59.53230       98.59703
N         42.56342       56.77678       98.81216
C         42.30816       55.50479       99.47686
C         43.12251       54.36958       98.86933
O         43.13308       53.29843       99.46056
C         40.78463       55.26060       99.61727
C         39.95375       55.28796       98.31919
C         40.23608       54.13689       97.40199
N         39.97327       52.87007       97.79295
O         40.66919       54.34959       96.28176
H         42.17626       56.93108       97.86983
H         42.69455       55.55485      100.51916
H         40.39118       56.08612      100.25022
H         40.60350       54.31373      100.16980
H         40.10354       56.25164       97.79021
H         38.87587       55.24046       98.58430
H         39.58282       52.67450       98.72549
H         40.13544       52.08321       97.15321
N         43.92692       54.55939       97.77832
C         44.98105       53.62059       97.38800
C         44.77837       53.00603       96.01388
O         45.61937       52.20864       95.62155
C         46.36811       54.33518       97.45084
C         46.64366       54.90133       98.85282
C         46.50852       55.45384       96.40187
H         43.86654       55.44404       97.25907
H         45.01608       52.76754       98.10107
H         47.15909       53.58253       97.23599
H         46.60375       54.08997       99.60935
H         47.65488       55.36095       98.88949
H         45.89990       55.68124       99.12231
H         47.52414       55.89919       96.45816
H         46.37226       55.05857       95.37361
H         45.76671       56.25859       96.56625
N         43.70593       53.30651       95.22887
C         43.51409       52.72862       93.90436
C         43.40971       53.79389       92.82390
O         43.24362       53.40039       91.67590
C         42.24645       51.84839       93.89872
C         42.33259       50.70493       94.88187
N         43.30279       49.76644       94.78227
O         41.50345       50.61461       95.77191
H         42.98666       53.95064       95.57768
H         44.37418       52.08429       93.62176
H         42.09995       51.40898       92.88787
H         41.36051       52.48050       94.13103
H         44.00903       49.80805       94.03437
H         43.34434       48.98826       95.45754
N         43.51324       55.13928       93.07066
C         43.35674       56.12162       91.99529
C         43.76417       57.54014       92.37323
O         43.87236       57.87180       93.54636
C         41.89483       56.10252       91.46273
C         40.85535       56.25992       92.56483
C         40.71045       57.46289       93.28040
C         40.01122       55.17952       92.88753
C         39.75591       57.57838       94.29680
C         39.05726       55.29729       93.90339
C         38.92732       56.49385       94.61336
O         38.00690       56.58827       95.59476
H         43.72042       55.46969       94.02396
H         44.06343       55.83532       91.18435
H         41.72689       55.12746       90.96367
H         41.74203       56.87147       90.67619
H         41.32621       58.31819       93.05712
H         40.09512       54.23741       92.36057
H         39.66138       58.51194       94.83751
H         38.42213       54.45363       94.14418
H         37.88803       57.39595       96.11483
N         44.03314       58.42982       91.36701
C         44.35851       59.84541       91.53605
C         45.61999       60.12121       92.35069
O         45.88989       61.28791       92.60211
C         43.12909       60.62585       92.04991
C         41.97472       60.53503       91.03139
C         40.80274       61.37863       91.43505
O         39.59727       60.81104       91.62806
O         40.92783       62.58712       91.55659
H         43.98136       58.08800       90.39467
H         44.57595       60.27620       90.53239
H         43.40610       61.69881       92.14831
H         42.80818       60.25883       93.04753
H         41.64850       59.47930       90.92093
H         42.32477       60.89324       90.03780
N         46.48409       59.13275       92.72391
C         47.72855       59.38680       93.44212
C         48.90644       59.02967       92.55949
O         49.72361       59.90125       92.29253
C         47.76326       58.58259       94.75676
C         46.69225       58.99345       95.78418
C         46.90180       60.37126       96.34479
O         47.20014       60.51767       97.64829
O         46.78474       61.36098       95.64202
H         46.28798       58.15892       92.45673
H         47.84371       60.46184       93.68699
H         48.76018       58.69169       95.23855
H         47.62012       57.50732       94.51478
H         46.76837       58.29001       96.63708
H         45.67150       58.90784       95.35544
N         49.06411       57.77407       92.05861
C         50.18441       57.42979       91.21009
H         51.13718       57.58012       91.76144
H         50.11415       56.36621       90.90010
H         50.18116       58.06724       90.29972
H         48.37202       57.04212       92.27577
Ca        48.30868       63.14359       97.45434
O         45.74976       64.78063      100.44502
H         45.82692       65.44999      101.17037
H         45.19773       65.22549       99.75459
O         46.35773       65.23559       96.58147
H         46.41268       65.33059       95.59755
H         47.02030       65.88234       96.93249

Ca 1.0



