%chk=apoCaM-CA-Ng.loop2.water4.frame1296.chk
%nprocshared=20
%mem=10GB
%nosave
#b3lyp/svp scf=(tight,noincore,xqc) Test 
#IOP(5/87=12) Density=Current Pop=(MK,readradii) iop(6/33=2) iop(6/42=6)

apoCaM-CA-Ng.loop2.water4.frame1296 

   -2  1 
C         69.02426       35.47775      105.24577
C         68.10574       36.55498      105.77560
O         68.56461       37.68467      105.85966
H         69.92966       35.43106      105.88734
H         68.59262       34.46136      105.24156
H         69.33540       35.72952      104.21079
N         66.82165       36.33409      106.19619
C         66.14298       35.03881      106.13197
C         64.90198       34.90237      107.02294
O         64.56244       33.76038      107.30366
C         65.81155       34.64194      104.67021
C         64.90467       35.61512      103.95777
O         64.59306       35.40117      102.79804
O         64.45360       36.73044      104.56236
H         66.34578       37.14314      106.61171
H         66.84354       34.29752      106.57488
H         65.33798       33.63636      104.66320
H         66.73759       34.57408      104.06828
N         64.18174       35.95586      107.52055
C         63.11227       35.78130      108.50206
C         61.73211       36.15400      107.98249
O         60.78630       36.00901      108.74551
C         63.44864       36.63706      109.73057
H         64.39507       36.92060      107.23854
H         63.04928       34.72135      108.82923
H         62.68801       36.50527      110.52878
H         64.44000       36.34778      110.13917
H         63.48420       37.71355      109.45011
N         61.52476       36.65741      106.73115
C         60.21325       37.11113      106.26705
C         59.81501       36.46350      104.94255
O         60.58045       35.70108      104.36773
C         60.24644       38.65406      106.15406
C         61.29599       39.08299      105.16790
O         61.19569       38.65643      103.89848
O         62.27217       39.71993      105.52880
H         62.32848       36.79621      106.10406
H         59.42380       36.85091      107.00571
H         60.47661       39.07344      107.15874
H         59.25644       39.05089      105.84510
N         58.59706       36.75440      104.40498
C         58.09536       36.23506      103.14399
C         58.78466       36.79667      101.91354
O         59.76454       37.51771      102.00466
H         57.95714       37.35788      104.94244
H         57.02890       36.53756      103.06010
H         58.13330       35.12385      103.13974
N         58.26404       36.49171      100.69524
C         58.80133       36.92649       99.40321
C         58.67215       38.43032       99.12010
O         59.01611       38.81726       98.01060
C         58.07538       36.14112       98.28378
C         58.29531       34.65502       98.44587
N         57.25861       33.82393       98.70273
O         59.42680       34.20097       98.35922
H         57.44384       35.86478      100.69277
H         59.88030       36.65904       99.34519
H         58.45546       36.43244       97.28025
H         56.98984       36.38299       98.32088
H         56.29898       34.18710       98.79572
H         57.41890       32.81338       98.82755
N         58.20618       39.34239      100.02941
C         58.04877       40.76508       99.72372
C         59.33906       41.44928       99.29116
O         60.37477       40.80085       99.25655
H         57.92179       39.03644      100.96825
H         57.64944       41.28540      100.62105
H         57.31066       40.86386       98.89887
N         59.37991       42.75520       98.88750
C         58.25525       43.69008       98.90291
C         57.75906       43.98152       97.48543
O         56.79449       44.72017       97.34843
C         58.71008       44.96924       99.66143
C         57.60756       46.01910       99.86145
O         59.18895       44.58951      100.92694
H         60.28052       43.11539       98.53091
H         57.39406       43.25132       99.44665
H         59.53709       45.43429       99.07137
H         59.88700       45.24801      101.18378
H         58.01263       46.87340      100.44443
H         57.25054       46.43903       98.90183
H         56.75264       45.58234      100.41944
N         58.31259       43.38552       96.38731
C         57.81094       43.57404       95.02682
C         57.18209       42.27629       94.53504
O         57.63233       41.21396       94.94377
C         58.90458       44.11687       94.05825
C         60.20295       43.26628       94.10116
C         59.17656       45.59869       94.37271
C         61.25405       43.68205       93.07419
H         59.08376       42.71724       96.51363
H         56.99510       44.31986       95.05124
H         58.48924       44.08403       93.02646
H         59.94828       42.20388       93.90148
H         60.67477       43.33766       95.10359
H         59.59868       45.72012       95.39169
H         59.86602       46.04845       93.63079
H         58.22937       46.17767       94.30635
H         60.84074       43.59002       92.05587
H         61.60531       44.72009       93.24022
H         62.13556       43.01244       93.15686
N         56.05451       42.25145       93.76043
C         55.42200       43.42838       93.15944
C         55.06956       43.17144       91.70535
O         55.17534       42.04599       91.24883
C         54.19858       43.85977       93.99405
C         53.14339       42.79391       94.10795
O         52.81883       42.29807       95.31742
O         52.56243       42.38735       93.11458
H         55.60987       41.33388       93.59926
H         56.12937       44.27836       93.13685
H         53.74299       44.77594       93.56181
H         54.55266       44.11682       95.01636
N         54.62656       44.19261       90.91761
C         54.26465       44.01517       89.51660
C         55.08071       44.96667       88.65061
O         55.05913       46.15269       88.94123
C         52.76380       44.31281       89.34666
C         52.30805       43.92046       87.96442
C         52.32304       44.84442       86.90657
C         51.90041       42.59838       87.71945
C         51.93454       44.44693       85.62284
C         51.51022       42.20671       86.43727
C         51.52843       43.12960       85.38885
H         54.52854       45.13165       91.33081
H         54.42406       42.96296       89.20968
H         52.53401       45.38036       89.56105
H         52.18720       43.71489       90.08695
H         52.64454       45.86496       87.07283
H         51.89147       41.87057       88.52184
H         51.95265       45.15830       84.80770
H         51.19915       41.18588       86.25708
H         51.23068       42.82207       84.39508
N         55.77751       44.56596       87.53604
C         55.80462       43.23005       86.96139
C         56.90593       42.33896       87.53779
O         57.06714       41.23965       87.03171
C         56.05679       43.52395       85.47767
C         57.03595       44.67764       85.55480
C         56.40587       45.53115       86.64962
H         54.82767       42.70558       87.03091
H         56.38141       42.65468       84.86732
H         55.11226       43.92107       85.03619
H         58.00372       44.27297       85.92638
H         57.21677       45.21943       84.60213
H         57.17181       46.15918       87.15247
H         55.60409       46.17656       86.22536
N         57.67704       42.72160       88.60016
C         58.70022       41.86416       89.20090
C         60.00621       42.64654       89.32480
O         59.95187       43.76958       89.80312
C         58.18840       41.42918       90.58804
C         58.98788       40.31124       91.27790
C         58.77441       38.95949       90.63250
O         59.12518       38.73953       89.48539
O         58.17793       37.97570       91.33288
H         57.49596       43.62941       89.04993
H         58.83748       40.95208       88.59572
H         57.16030       41.03652       90.47332
H         58.15130       42.32361       91.24789
H         58.60147       40.23140       92.31699
H         60.06562       40.56805       91.33770
N         61.22666       42.16549       88.94785
C         61.46203       40.83625       88.43468
H         62.54630       40.69902       88.23323
H         61.17416       40.08468       89.19373
H         60.90188       40.67676       87.49145
H         62.05082       42.77577       89.06877
Ca        62.91945       38.39965      102.48069
O         61.95149       34.76111      101.38291
H         61.46842       34.11152      100.81312
H         62.23127       34.23516      102.17387
O         63.16510       37.38674       99.68268
H         62.68478       36.75808       99.08778
H         62.90522       38.28574       99.35867
O         65.72424       39.08458      102.84803
H         65.88141       39.36363      101.91120
H         65.09152       39.75867      103.20361
O         62.03367       40.97344      101.62820
H         62.58720       41.03581      102.44669
H         62.66292       41.16636      100.88856

Ca 1.0



