%chk=apoCaM-CA-Ng.loop2.water3.frame583.chk
%nprocshared=20
%mem=10GB
%nosave
#b3lyp/svp scf=(tight,noincore,xqc) Test 
#IOP(5/87=12) Density=Current Pop=(MK,readradii) iop(6/33=2) iop(6/42=6)

apoCaM-CA-Ng.loop2.water3.frame583 

   -2  1 
C         60.22826      105.80829       86.99233
C         59.24346      106.89026       87.33653
O         58.81753      106.95890       88.48043
H         61.14401      105.91916       87.60887
H         59.77199      104.81571       87.19357
H         60.51640      105.84568       85.92018
N         58.81909      107.76629       86.38332
C         57.81839      108.79666       86.63616
C         58.29188      109.80250       87.67166
O         59.27648      110.48989       87.43726
C         57.47325      109.53131       85.32271
C         56.44846      110.61417       85.53195
O         55.23162      110.31171       86.02276
O         56.72045      111.77433       85.26568
H         59.19596      107.66705       85.42757
H         56.89090      108.29622       86.99424
H         57.07195      108.79981       84.58865
H         58.39878      109.97805       84.89484
N         57.58057      109.97649       88.82329
C         57.87197      111.02825       89.79416
C         59.26455      110.88066       90.39281
O         59.81612      109.79215       90.30761
C         56.81424      110.98517       90.91026
H         56.75878      109.37272       88.98171
H         57.79033      111.98901       89.25366
H         56.85916      110.00736       91.43676
H         56.94302      111.77706       91.66653
H         55.80126      111.10650       90.47213
N         59.91959      111.89384       91.04100
C         59.43958      113.27488       91.17534
C         59.33839      113.99242       89.83386
O         59.81339      113.48370       88.82985
C         60.32529      114.06593       92.17261
C         61.79809      114.02936       91.85556
O         62.66071      113.49108       92.73930
O         62.22153      114.47823       90.80726
H         60.83001      111.65347       91.46266
H         58.42941      113.26688       91.61514
H         60.19102      113.61442       93.17896
H         59.98670      115.12251       92.23434
N         58.68902      115.19205       89.75015
C         58.55629      115.94189       88.50988
C         57.75711      115.21329       87.44126
O         57.23911      114.13644       87.70713
H         58.28535      115.60334       90.60461
H         59.57627      116.15155       88.12408
H         58.04897      116.90889       88.72024
N         57.63429      115.70156       86.17224
C         58.22342      116.95827       85.71450
C         59.48721      116.70715       84.90114
O         60.11423      117.68060       84.49930
C         57.19157      117.78150       84.91146
C         55.96375      118.12677       85.72361
N         55.64963      119.41648       85.99173
O         55.23690      117.23362       86.13343
H         57.14438      115.12124       85.47235
H         58.54254      117.58069       86.57407
H         56.87604      117.22135       84.00407
H         57.67925      118.72222       84.57343
H         56.24381      120.18928       85.65780
H         54.80762      119.64602       86.54076
N         59.96068      115.44876       84.65005
C         61.20337      115.19595       83.93475
C         62.45876      115.59942       84.70022
O         63.53545      115.45837       84.14166
H         59.42494      114.62257       84.95445
H         61.16742      115.72232       82.95652
H         61.28753      114.10631       83.73190
N         62.41322      116.08994       85.97230
C         63.59492      116.49498       86.73883
C         64.55126      115.32148       86.96715
O         64.11733      114.26710       87.40653
C         63.16634      117.17291       88.08009
C         62.47370      118.51354       87.79634
O         62.30006      116.39269       88.87045
H         61.49604      116.18608       86.42598
H         64.14985      117.27354       86.17119
H         64.08111      117.39416       88.67191
H         62.27431      115.46377       88.53248
H         62.20676      119.01445       88.75057
H         63.15489      119.18577       87.23167
H         61.54355      118.37436       87.20576
N         65.88813      115.45806       86.70130
C         66.86272      114.36993       86.80571
C         67.78644      114.60046       87.99771
O         68.43073      115.63698       88.07441
C         67.70428      114.25905       85.49431
C         68.70822      113.07616       85.59570
C         66.78951      114.10310       84.26568
C         69.68996      112.97322       84.42883
H         66.23972      116.38217       86.40836
H         66.33421      113.40132       86.94910
H         68.28063      115.20322       85.37106
H         68.15139      112.12293       85.69244
H         69.33615      113.20154       86.49976
H         66.10464      114.97033       84.18156
H         67.37895      114.08719       83.32730
H         66.18891      113.17136       84.33470
H         70.28795      113.90606       84.35286
H         70.38370      112.12475       84.61331
H         69.17394      112.78067       83.46818
N         67.92319      113.62480       88.94194
C         68.78230      113.69483       90.11581
C         69.85275      112.60300       90.12512
O         70.61372      112.58535       91.08396
C         67.90533      113.50754       91.36425
C         66.84971      114.56471       91.48091
O         67.15787      115.71132       91.76528
O         65.55698      114.25242       91.26003
H         67.37210      112.77174       88.83830
H         69.30352      114.67673       90.16568
H         68.51251      113.51196       92.29654
H         67.41810      112.51174       91.28976
N         70.01176      111.68362       89.11875
C         71.08526      110.69133       89.14160
C         70.57184      109.29658       88.76604
O         71.05650      108.73974       87.78968
C         72.22341      111.20054       88.22081
C         73.53154      110.45090       88.37623
C         74.19075      110.42327       89.62128
C         74.13148      109.81392       87.27561
C         75.41840      109.76932       89.76101
C         75.36316      109.16325       87.42024
C         76.00538      109.14117       88.66124
H         69.42254      111.73136       88.27711
H         71.51379      110.62212       90.16168
H         72.44478      112.25596       88.49200
H         71.87199      111.19885       87.16511
H         73.76394      110.91657       90.48488
H         73.65453      109.82898       86.30406
H         75.91874      109.75683       90.72132
H         75.82490      108.68087       86.56845
H         76.96022      108.64226       88.77046
N         69.61759      108.63411       89.49987
C         69.22139      107.25060       89.24107
C         68.53601      107.02360       87.90754
O         68.39690      105.87827       87.50070
C         68.23326      106.93345       90.36995
C         68.72541      107.83689       91.48368
C         69.01749      109.12434       90.71993
H         70.14484      106.63375       89.32339
H         67.22122      107.31348       90.09290
H         68.14487      105.85357       90.61699
H         68.01752      107.95633       92.33090
H         69.68794      107.42565       91.86317
H         68.06437      109.63739       90.45546
H         69.66657      109.79530       91.31678
N         68.00248      108.06820       87.21745
C         67.31505      107.91962       85.94741
C         68.34170      107.52219       84.91149
O         68.18330      106.49118       84.27338
C         66.57525      109.21028       85.49480
C         65.37183      109.63534       86.38009
C         65.68754      110.42732       87.62317
O         64.68488      110.84404       88.42133
O         66.82031      110.78804       87.86542
H         68.10158      108.99840       87.61624
H         66.53066      107.13310       86.03514
H         66.13586      108.95824       84.50388
H         67.26527      110.06168       85.33182
H         64.76526      108.74069       86.63439
H         64.73362      110.31554       85.77538
N         69.45405      108.29170       84.73520
C         70.52032      107.96692       83.81255
H         71.45969      107.81255       84.38527
H         70.30956      107.04673       83.22923
H         70.66533      108.81139       83.10787
H         69.57295      109.14063       85.30923
Ca        65.02207      112.38917       90.06290
O         62.16139      112.02290       88.44025
H         62.07801      112.76109       87.78762
H         61.87725      111.22001       87.93653
O         65.27145      110.30784       92.45834
H         66.18240      110.68057       92.56100
H         65.40709      109.46126       91.96333
O         62.84780      109.80893       90.63478
H         63.31644      108.94778       90.76674
H         62.35023      109.68310       89.78947

Ca 1.0



