%chk=apoCaM-CA-Ng.loop4.water3.frame184.chk
%nprocshared=20
%mem=10GB
%nosave
#b3lyp/svp scf=(tight,noincore,xqc) Test 
#IOP(5/87=12) Density=Current Pop=(MK,readradii) iop(6/33=2) iop(6/42=6)

apoCaM-CA-Ng.loop4.water3.frame184 

   -3  1 
C         77.58077       45.76956       10.69742
C         76.25541       45.34552       10.14514
O         76.11370       45.29271        8.93340
H         78.29227       45.99912        9.87457
H         77.45110       46.67644       11.32300
H         78.00393       44.94976       11.31444
N         75.24117       44.99688       10.98987
C         73.92462       44.54292       10.55438
C         74.05675       43.31207        9.67759
O         73.73195       43.36595        8.50654
C         73.04183       45.70348       10.01314
C         73.53649       46.47156        8.82029
O         73.63528       45.93618        7.73112
O         73.81299       47.78450        8.93830
H         75.42418       45.01594       12.00472
H         73.35826       44.20659       11.45236
H         72.92417       46.42952       10.84703
H         72.02947       45.30783        9.77651
N         74.54915       42.16250       10.23194
C         74.74530       40.85776        9.59120
C         73.41902       40.19410        9.21948
O         73.07962       39.20444        9.85474
C         75.78508       40.89838        8.43631
C         76.06590       39.48959        7.83812
C         77.09862       41.55254        8.90833
C         76.60830       38.45102        8.83132
H         74.81607       42.20973       11.22811
H         75.19015       40.21633       10.38446
H         75.38621       41.52774        7.61508
H         76.80212       39.59495        7.01193
H         75.13179       39.08299        7.39668
H         77.54271       41.00247        9.76377
H         77.83590       41.58372        8.07818
H         76.91958       42.59672        9.23562
H         76.79142       37.49455        8.29905
H         77.56594       38.78153        9.28168
H         75.88027       38.23982        9.63963
N         72.60142       40.67527        8.23855
C         71.28401       40.11860        7.97491
C         71.38656       38.74505        7.30527
O         70.91241       37.79702        7.91496
C         70.39625       41.15670        7.24582
C         68.98971       40.66489        7.05576
O         68.51049       40.59084        5.93589
O         68.24186       40.32687        8.12410
H         72.88467       41.48918        7.68951
H         70.77502       39.99061        8.95930
H         70.82210       41.47418        6.28129
H         70.35075       42.07657        7.86964
N         71.98048       38.50077        6.09451
C         72.58286       39.52188        5.24742
C         73.13575       38.99519        3.93095
O         73.02468       37.80370        3.67912
H         71.98658       37.52015        5.77542
H         73.39456       40.02235        5.80719
H         71.78345       40.20713        4.96565
N         73.73622       39.79632        2.99179
C         74.03879       41.22979        3.08662
C         75.05887       41.47734        4.19090
O         74.72988       42.13751        5.16516
C         72.78072       42.12124        3.18969
C         71.79032       41.80734        2.10369
O         72.10837       41.90884        0.92930
O         70.54373       41.41144        2.42403
H         74.03723       39.33502        2.11855
H         74.50507       41.55645        2.13136
H         73.08998       43.18422        3.09234
H         72.29204       42.04050        4.17192
N         76.32784       40.96898        4.14104
C         76.88894       40.26574        2.99615
C         77.18064       38.82430        3.29553
O         76.98202       38.37126        4.41354
H         76.94967       41.11790        4.95114
H         77.81898       40.78015        2.67228
H         76.20839       40.26801        2.12973
N         77.61282       38.02123        2.28284
C         77.84230       36.58998        2.44837
C         79.04605       36.27702        3.33453
O         79.20664       35.11987        3.69744
C         77.79879       35.86590        1.07648
C         78.84011       36.25414        0.00632
C         80.19679       35.65732        0.22914
N         80.35280       34.31279        0.25165
O         81.16993       36.38564        0.32997
H         77.69063       38.44311        1.34672
H         76.95365       36.18838        2.98682
H         76.80729       36.12500        0.64283
H         77.79620       34.76528        1.22503
H         78.90440       37.35548       -0.10849
H         78.49103       35.84990       -0.96853
H         79.54597       33.68480        0.13077
H         81.28187       33.88884        0.36144
N         79.88407       37.25939        3.78625
C         80.90951       37.05493        4.80832
C         82.31947       37.31498        4.30680
O         83.22467       37.20910        5.12186
C         80.61019       37.92835        6.07103
C         79.39684       37.39149        6.83460
C         80.42011       39.42551        5.76095
H         79.76834       38.21678        3.42790
H         80.92849       35.99546        5.14755
H         81.46838       37.83642        6.77341
H         79.24877       37.98447        7.76047
H         78.47747       37.43740        6.22084
H         79.57342       36.33659        7.13529
H         80.28993       39.99369        6.70713
H         81.30306       39.83605        5.22864
H         79.51169       39.60296        5.14806
N         82.60857       37.59644        3.00052
C         83.98801       37.77921        2.54440
C         84.22353       39.14229        1.91524
O         85.38113       39.45648        1.66025
C         84.38874       36.66579        1.55285
C         84.06199       35.27679        2.05298
N         84.50363       34.82654        3.24926
O         83.37903       34.54377        1.35782
H         81.84954       37.63301        2.31192
H         84.67965       37.71519        3.40994
H         85.48152       36.73283        1.36096
H         83.86378       36.82052        0.58348
H         85.07298       35.42142        3.86548
H         84.25309       33.87816        3.56869
N         83.20183       39.98317        1.57942
C         83.41203       41.25663        0.90119
C         82.49658       42.34227        1.44951
O         81.55912       42.04517        2.17959
C         83.07766       41.06888       -0.59429
C         84.02343       40.13241       -1.30334
C         85.34914       40.52815       -1.54579
C         83.58661       38.87782       -1.76126
C         86.21972       39.68998       -2.24786
C         84.46362       38.03470       -2.45169
C         85.77872       38.43984       -2.70496
O         86.60493       37.62578       -3.39267
H         82.22723       39.67464        1.70514
H         84.46597       41.59485        1.01805
H         83.11597       42.03334       -1.14134
H         82.03356       40.68693       -0.66073
H         85.70097       41.49604       -1.21082
H         82.56977       38.55021       -1.58401
H         87.23348       40.01686       -2.44259
H         84.11755       37.06938       -2.79938
H         87.51454       37.87802       -3.60739
N         82.68842       43.63460        1.05376
C         81.77029       44.75367        1.27302
C         81.51034       45.15450        2.72350
O         80.79257       46.13066        2.89844
C         80.42025       44.47973        0.56942
C         80.58401       44.20493       -0.93185
C         79.25435       43.91796       -1.56372
O         78.83383       44.62708       -2.46337
O         78.52438       42.86453       -1.14825
H         83.51333       43.83499        0.46510
H         82.22224       45.64792        0.78591
H         79.75939       45.36777        0.68248
H         79.91851       43.61568        1.05465
H         81.23032       43.32226       -1.09491
H         81.05869       45.08500       -1.41987
N         82.02155       44.49583        3.80486
C         81.69714       44.87607        5.18090
C         82.93301       45.30457        5.96069
O         82.77180       45.70612        7.10556
C         81.02692       43.68660        5.90632
C         79.75649       43.13384        5.23538
C         78.56735       44.04765        5.30982
O         78.56742       45.13182        4.75025
O         77.46802       43.63351        5.96880
H         82.64295       43.68831        3.66943
H         81.00203       45.74226        5.19906
H         80.78005       43.96361        6.95581
H         81.76721       42.85752        5.93901
H         79.48226       42.20216        5.77337
H         79.95666       42.86369        4.17839
N         84.19099       45.24531        5.43073
C         85.38113       45.62694        6.16430
H         85.91181       46.42926        5.61140
H         85.15392       45.99624        7.18630
H         86.05187       44.74667        6.25383
H         84.34044       44.90407        4.47195
Ca        75.57136       44.84217        6.00238
O         72.26848       44.76566        5.30708
H         71.97511       45.70335        5.42853
H         71.49592       44.31993        4.87786
O         75.15907       45.18897        3.10804
H         76.01328       45.68944        3.08554
H         74.50246       45.79583        2.68315
O         76.23421       47.72507        6.06771
H         77.16995       47.44201        5.91027
H         76.15919       47.79567        7.05246

Ca 1.0



