%chk=apoCaM-CA-Ng.loop4.water5.frame604.chk
%nprocshared=20
%mem=10GB
%nosave
#b3lyp/svp scf=(tight,noincore,xqc) Test 
#IOP(5/87=12) Density=Current Pop=(MK,readradii) iop(6/33=2) iop(6/42=6)

apoCaM-CA-Ng.loop4.water5.frame604 

   -3  1 
C         53.61082       40.64366      -24.42316
C         53.41271       42.12823      -24.39311
O         54.37244       42.85528      -24.18057
H         54.67183       40.38255      -24.22341
H         52.97198       40.16702      -23.65023
H         53.32787       40.25412      -25.42350
N         52.17127       42.64766      -24.61093
C         51.86167       44.07206      -24.61286
C         52.63833       44.77846      -25.70248
O         53.36435       45.71792      -25.40624
C         52.10863       44.70740      -23.22341
C         51.29821       44.04627      -22.15453
O         51.92049       43.44487      -21.12501
O         50.07877       44.05907      -22.20627
H         51.39361       41.99555      -24.79628
H         50.78164       44.19824      -24.85082
H         51.83800       45.78600      -23.24737
H         53.18258       44.63328      -22.95545
N         52.50481       44.39047      -27.00553
C         53.19452       45.07155      -28.10118
C         52.14801       45.82547      -28.92642
O         50.96944       45.55575      -28.73249
C         54.09347       44.07152      -28.91058
C         53.29691       43.24380      -29.94887
C         54.87817       43.15478      -27.94658
C         54.19722       42.39496      -30.85379
H         51.86460       43.61310      -27.23040
H         53.87106       45.83634      -27.66321
H         54.83288       44.65963      -29.48630
H         52.76113       43.94470      -30.62401
H         52.54743       42.59631      -29.44730
H         54.19133       42.45839      -27.41873
H         55.63833       42.55137      -28.48144
H         55.40537       43.75036      -27.18097
H         53.58083       41.89918      -31.63207
H         54.94919       43.03835      -31.36132
H         54.72087       41.60258      -30.28281
N         52.42326       46.83004      -29.80717
C         53.73518       47.36911      -30.13073
C         53.94528       48.71771      -29.46214
O         54.99716       48.90212      -28.86380
C         53.99890       47.35091      -31.65530
C         53.06383       48.12091      -32.56007
O         52.01158       48.81389      -32.09257
O         53.26320       48.10075      -33.76373
H         51.60751       47.28767      -30.23861
H         54.53002       46.73312      -29.71041
H         53.96764       46.28889      -31.98448
H         55.02925       47.73008      -31.82926
N         52.96665       49.66494      -29.39810
C         53.13036       50.86625      -28.60175
C         54.14934       51.82703      -29.16270
O         54.62515       51.65764      -30.27716
H         52.04583       49.49753      -29.82121
H         53.42514       50.56429      -27.57256
H         52.16358       51.40959      -28.52941
N         54.50835       52.89660      -28.40265
C         55.39141       53.97206      -28.84407
C         56.79872       53.55028      -29.26135
O         57.51271       54.42217      -29.73939
C         55.46739       55.07412      -27.74857
C         55.98057       54.62185      -26.39872
O         56.28094       53.45983      -26.18616
O         56.07398       55.51446      -25.39560
H         54.07407       52.97214      -27.46932
H         54.92687       54.42852      -29.74522
H         54.44631       55.48015      -27.58771
H         56.11027       55.90674      -28.10566
N         57.29245       52.28564      -29.10428
C         58.66255       51.93967      -29.46521
C         59.53926       51.80419      -28.24154
O         60.74176       51.65578      -28.40794
H         56.72074       51.55788      -28.65382
H         59.12177       52.74580      -30.07784
H         58.67896       51.01864      -30.08656
N         59.02181       51.89044      -26.97794
C         59.81693       51.94872      -25.76169
C         60.60684       50.67520      -25.49620
O         61.38791       50.66687      -24.55651
C         60.64904       53.25534      -25.73446
C         59.69838       54.47672      -25.77974
C         60.38180       55.81407      -25.65930
N         59.63377       56.94293      -25.63726
O         61.59830       55.89158      -25.57221
H         58.00940       51.96620      -26.84764
H         59.12596       52.02608      -24.89202
H         61.37149       53.29558      -26.57701
H         61.22120       53.29803      -24.78244
H         58.98140       54.39749      -24.93336
H         59.12143       54.47229      -26.73006
H         58.60568       56.89316      -25.70216
H         60.07765       57.86865      -25.54702
N         60.35862       49.52515      -26.19447
C         60.96458       48.23650      -25.86636
C         59.91991       47.24952      -25.34672
O         60.31120       46.14835      -24.97823
C         61.71418       47.64299      -27.09378
C         60.77972       47.35015      -28.28281
C         62.85995       48.55918      -27.53979
H         59.65753       49.53318      -26.94502
H         61.70360       48.35937      -25.04460
H         62.16898       46.67650      -26.78045
H         60.32395       48.27819      -28.68549
H         61.34870       46.86511      -29.10357
H         59.97048       46.65474      -27.98051
H         63.56785       48.72244      -26.69985
H         63.41944       48.08860      -28.37660
H         62.47377       49.54219      -27.88143
N         58.58761       47.55196      -25.28961
C         57.56574       46.61936      -24.83304
C         56.82573       47.20510      -23.64883
O         56.34900       48.32997      -23.72862
C         56.58351       46.30343      -25.96592
C         57.27568       45.64285      -27.13173
N         57.21021       46.17948      -28.37017
O         57.88748       44.59852      -26.95829
H         58.25311       48.47603      -25.59879
H         58.01741       45.64864      -24.52810
H         56.05967       47.22923      -26.29051
H         55.82858       45.59070      -25.57631
H         56.69645       47.05350      -28.53831
H         57.66989       45.71466      -29.16648
N         56.70156       46.47796      -22.50757
C         56.09069       46.96586      -21.27731
C         56.21082       45.89382      -20.21776
O         55.74233       44.78253      -20.43371
C         54.59855       47.36720      -21.41550
C         54.07695       47.81507      -20.05996
C         53.05313       47.10053      -19.41352
C         54.65517       48.91986      -19.40597
C         52.63449       47.47187      -18.13082
C         54.23875       49.28372      -18.12346
C         53.23424       48.55860      -17.47783
O         52.86016       48.91066      -16.23114
H         57.10640       45.52733      -22.50409
H         56.65767       47.86536      -20.95602
H         54.01867       46.49606      -21.78343
H         54.46541       48.19523      -22.14091
H         52.59259       46.24431      -19.89021
H         55.44597       49.48891      -19.87720
H         51.85328       46.90740      -17.63954
H         54.70824       50.12352      -17.62614
H         52.18594       48.42232      -15.73782
N         56.80329       46.18166      -19.02985
C         56.97941       45.20795      -17.97062
C         56.12342       45.64185      -16.79336
O         56.46923       46.63608      -16.16994
C         58.49550       45.14654      -17.66394
C         58.94304       44.10494      -16.63384
C         58.48397       44.42341      -15.24210
O         57.79261       43.62911      -14.62647
O         58.85537       45.57885      -14.65644
H         57.13715       47.14406      -18.86069
H         56.66095       44.20933      -18.31868
H         58.86277       46.15232      -17.35672
H         59.00658       44.89283      -18.61950
H         60.05511       44.09649      -16.61957
H         58.59266       43.09968      -16.95125
N         54.93908       45.04363      -16.45490
C         54.28898       43.95166      -17.18181
C         55.01669       42.63863      -16.96703
O         55.20377       42.24889      -15.82162
C         52.83427       43.78288      -16.68028
C         51.97289       42.89982      -17.60918
C         50.59469       42.65108      -17.04463
O         50.32764       42.95447      -15.89239
O         49.63182       42.09232      -17.80280
H         54.41726       45.47038      -15.67226
H         54.22570       44.23196      -18.25666
H         52.33748       44.77644      -16.65189
H         52.85057       43.38113      -15.64329
H         52.44938       41.91400      -17.79895
H         51.87453       43.43416      -18.57629
N         55.40616       41.87055      -18.01922
C         56.02948       40.57901      -17.82337
H         56.98254       40.69510      -17.26546
H         55.34632       39.91510      -17.24883
H         56.23798       40.10245      -18.80388
H         55.22709       42.19148      -18.98246
Ca        49.71686       41.92148      -20.04980
O         46.97524       43.39499      -21.89655
H         46.29622       43.31489      -22.61282
H         47.05981       44.36961      -21.74311
O         48.65199       44.89263      -19.23678
H         47.93236       45.09843      -18.58851
H         48.82841       45.75295      -19.69400
O         46.69871       42.33969      -18.04614
H         47.15552       42.72848      -17.25833
H         46.53313       41.39652      -17.79450
O         47.23088       40.27515      -20.42746
H         47.04547       39.56931      -19.75837
H         46.75494       39.97891      -21.24322
O         51.34099       39.62023      -20.53783
H         51.79724       40.14632      -19.83324
H         50.59765       39.16687      -20.06547

Ca 1.0



