%chk=apoCaM-CA-Ng.loop3.water5.frame433.chk
%nprocshared=20
%mem=10GB
%nosave
#b3lyp/svp scf=(tight,noincore,xqc) Test 
#IOP(5/87=12) Density=Current Pop=(MK,readradii) iop(6/33=2) iop(6/42=6)

apoCaM-CA-Ng.loop3.water5.frame433 

   0  1 
C         91.05402       66.94345      104.59343
C         89.98161       66.15256      105.28621
O         88.89138       66.66259      105.49701
H         91.95700       66.99919      105.23812
H         91.32635       66.43778      103.64204
H         90.71033       67.97407      104.36542
N         90.24561       64.87631      105.67491
C         89.30204       63.97542      106.32611
C         88.80233       64.52698      107.66127
O         87.61042       64.48600      107.93325
C         88.17446       63.58254      105.34234
C         87.30723       62.47406      105.87333
O         86.10710       62.64575      106.01523
O         87.84955       61.27966      106.17914
H         91.19211       64.50511      105.49415
H         89.87264       63.04831      106.56027
H         88.63279       63.21936      104.39699
H         87.55327       64.47269      105.10224
N         89.68518       65.05302      108.55448
C         89.32924       65.46197      109.91173
C         89.31308       66.96869      110.08784
O         89.24800       67.42012      111.22423
C         90.33050       64.81311      110.89445
C         90.27941       63.27636      110.91234
C         88.92755       62.75822      111.42587
C         88.92695       61.23716      111.59037
N         87.63381       60.77965      112.09892
H         90.67158       65.15462      108.26828
H         88.30018       65.15012      110.18152
H         90.13365       65.16619      111.93038
H         91.35975       65.13707      110.62157
H         91.07742       62.92864      111.60413
H         90.49496       62.86435      109.90215
H         88.11791       63.03269      110.71866
H         88.71635       63.22055      112.41517
H         89.72673       60.94306      112.30605
H         89.13239       60.75358      110.60978
H         87.43333       61.22525      113.02427
H         86.87486       61.02396      111.42162
H         87.65930       59.74225      112.22192
N         89.27468       67.81560      109.02256
C         89.22529       69.26349      109.17615
C         88.00934       69.69000      109.99577
O         86.92051       69.18125      109.76615
C         89.21629       69.94796      107.79393
C         89.57507       71.39963      107.92586
O         88.72532       72.36892      107.55687
O         90.67035       71.70952      108.36669
H         89.27298       67.42404      108.07028
H         90.15991       69.56959      109.69759
H         88.23135       69.80459      107.29856
H         89.99465       69.49476      107.14316
N         88.13499       70.64413      110.96014
C         87.05353       71.10320      111.82015
C         85.83430       71.57062      111.05646
O         84.74596       71.10698      111.36708
H         89.05665       71.08458      111.09462
H         87.43120       71.94803      112.43651
H         86.75649       70.28778      112.51640
N         85.93734       72.46215      110.02968
C         84.77580       72.93512      109.27242
C         84.65150       72.25794      107.90991
O         83.70040       72.55684      107.20120
C         84.75854       74.48170      109.22222
C         85.89703       75.13391      108.47849
N         86.01068       76.48201      108.47587
O         86.71867       74.46068      107.88055
H         86.87822       72.77672      109.75053
H         83.84230       72.64814      109.80368
H         84.78124       74.84853      110.27177
H         83.80879       74.82812      108.76045
H         85.32555       77.07023      108.97184
H         86.79512       76.94120      107.99226
N         85.51401       71.27829      107.50842
C         85.28966       70.43802      106.34055
C         86.03969       70.88256      105.10530
O         85.99177       70.16844      104.11713
H         86.28532       71.00293      108.12820
H         84.20459       70.33887      106.12103
H         85.65093       69.41637      106.59250
N         86.74593       72.04632      105.07773
C         87.53405       72.48762      103.92965
C         88.00543       73.89973      104.19114
O         88.66257       74.14659      105.18801
C         88.72093       71.53677      103.67264
C         89.69086       72.07537      102.64217
C         89.26870       72.43373      101.34877
C         91.04364       72.23132      102.98565
C         90.18652       72.94658      100.42435
C         91.95851       72.73449      102.05973
C         91.53292       73.09625      100.77510
O         92.40752       73.58481       99.87282
H         86.71070       72.65525      105.90547
H         86.88384       72.49903      103.02759
H         88.33716       70.55549      103.32534
H         89.25540       71.36853      104.63330
H         88.23176       72.32877      101.05689
H         91.39402       71.95764      103.97207
H         89.85159       73.22824       99.43387
H         92.99749       72.84243      102.34415
H         93.34771       73.69412      100.07654
N         87.63436       74.89215      103.34284
C         87.74329       76.29339      103.69935
C         86.52435       76.63755      104.52177
O         86.67217       77.27401      105.55453
C         87.90931       77.17396      102.43433
C         89.14614       76.74043      101.59778
C         87.99310       78.66799      102.80430
C         90.47414       76.70141      102.36812
H         87.04995       74.64936      102.52905
H         88.63081       76.47272      104.34147
H         87.01363       77.05439      101.78417
H         89.25217       77.42871      100.73139
H         88.97137       75.72219      101.18932
H         88.84904       78.87443      103.47905
H         88.10106       79.28452      101.88652
H         87.06300       78.99707      103.31351
H         90.44576       75.93610      103.17206
H         91.29285       76.41215      101.67736
H         90.71884       77.68873      102.80877
N         85.29415       76.15994      104.17850
C         84.11200       76.40321      104.98642
C         83.73807       77.86624      104.93474
O         83.15306       78.35791      105.88866
C         82.93304       75.54478      104.50229
O         83.29315       74.18607      104.53723
H         85.19649       75.57441      103.33570
H         84.32567       76.09769      106.03625
H         82.65302       75.81284      103.46085
H         82.04895       75.74022      105.15584
H         82.60262       73.70324      105.06075
N         84.02692       78.61484      103.82497
C         83.64610       80.00721      103.64562
C         84.30810       80.96230      104.63467
O         83.93743       82.12813      104.61516
C         82.11305       80.13189      103.66100
H         84.50782       78.16902      103.02972
H         83.96755       80.33022      102.63004
H         81.80845       81.16907      103.40767
H         81.67691       79.45346      102.89554
H         81.68089       79.87619      104.64868
N         85.31214       80.58206      105.48913
C         85.90635       81.50077      106.46098
C         87.36305       81.81250      106.15594
O         87.97400       81.14798      105.33033
C         85.76100       80.92086      107.86795
H         85.67645       79.62110      105.45642
H         85.36945       82.47272      106.43150
H         86.30434       79.95329      107.94273
H         86.16903       81.62157      108.62611
H         84.68774       80.74202      108.09143
N         87.93971       82.91151      106.73753
C         89.26900       83.43572      106.42307
C         89.48335       83.52510      104.92350
O         90.45717       82.99014      104.40971
C         90.39061       82.66121      107.16179
C         90.40666       82.93418      108.68194
C         90.81151       84.34720      109.05552
O         91.12700       85.16985      108.20862
O         90.86311       84.69645      110.35450
H         87.35391       83.48554      107.36302
H         89.30746       84.48686      106.77283
H         91.39038       82.96467      106.77828
H         90.27000       81.57414      106.96616
H         91.15341       82.25922      109.15222
H         89.40950       82.70568      109.11276
N         88.59234       84.21597      104.16067
C         88.73495       84.39586      102.73118
H         89.66876       83.94202      102.33757
H         87.86991       83.93365      102.21286
H         88.75568       85.48227      102.50437
H         87.76849       84.64004      104.61363
Ca        89.47729       74.47798      107.86648
O         90.00768       73.50456      110.67040
H         90.93794       73.16578      110.66532
H         89.96837       74.10998      111.45154
O         92.23083       74.95250      108.72550
H         92.79359       74.15235      108.87787
H         92.87316       75.70018      108.63765
O         91.56357       74.06961      105.70418
H         92.23936       73.37474      105.90545
H         92.05317       74.75362      105.18259
O         89.92355       77.07660      106.57279
H         90.79881       77.29264      106.16415
H         89.54492       77.95190      106.83784
O         88.84077       76.60036      109.85114
H         89.22013       76.39728      110.74204
H         89.48793       77.22766      109.44179

Ca 1.0



