%chk=apoCaM-CA-Ng.loop2.water3.frame1378.chk
%nprocshared=20
%mem=10GB
%nosave
#b3lyp/svp scf=(tight,noincore,xqc) Test 
#IOP(5/87=12) Density=Current Pop=(MK,readradii) iop(6/33=2) iop(6/42=6)

apoCaM-CA-Ng.loop2.water3.frame1378 

   -2  1 
C          6.12977       46.07639       41.55126
C          7.15632       46.10762       42.64889
O          8.33570       46.18592       42.33719
H          5.45555       46.95379       41.65366
H          6.62191       46.13812       40.55654
H          5.53997       45.13902       41.59622
N          6.82179       46.10225       43.97065
C          5.45849       46.03478       44.49203
C          5.31133       44.96841       45.57861
O          4.25395       44.91298       46.19203
C          5.07934       47.42973       45.03276
C          5.93036       47.86577       46.19219
O          5.88608       47.26079       47.24986
O          6.74226       48.93009       46.07691
H          7.58807       46.21686       44.65342
H          4.72723       45.80801       43.68889
H          4.01313       47.44313       45.34713
H          5.19184       48.15900       44.20070
N          6.32398       44.10503       45.88956
C          6.28872       43.19611       47.02647
C          7.54910       43.42134       47.84908
O          8.35081       42.50614       47.98574
C          6.17540       41.75017       46.52501
H          7.17908       44.08848       45.31527
H          5.40228       43.38338       47.67206
H          7.03732       41.48326       45.87746
H          6.13938       41.05017       47.38849
H          5.23766       41.62594       45.94268
N          7.79712       44.63840       48.42055
C          9.03782       44.92031       49.14723
C          8.98957       46.21437       49.96035
O          8.03351       46.97283       49.87667
C         10.24094       44.92796       48.16916
C         10.09612       45.96560       47.08466
O         10.04433       45.62440       45.91373
O         10.04210       47.27432       47.39421
H          7.07524       45.36592       48.33831
H          9.17525       44.11341       49.90081
H         10.33719       43.93042       47.69279
H         11.18767       45.11207       48.71796
N          9.99933       46.47594       50.84193
C         10.00820       47.60275       51.76195
C         10.26148       48.94246       51.10932
O         10.44845       49.02382       49.90353
H         10.76070       45.78700       50.93690
H         10.82975       47.45220       52.49564
H          9.05008       47.62270       52.32540
N         10.28825       50.05424       51.90033
C         10.52267       51.41334       51.42273
C         11.68745       52.08230       52.15194
O         11.88962       53.27002       51.93814
C          9.26156       52.26001       51.69367
C          8.03390       51.69655       51.03421
N          6.96939       51.31831       51.77911
O          7.99441       51.59222       49.81835
H         10.09970       49.93378       52.90863
H         10.72890       51.42839       50.32911
H          9.41022       53.29352       51.31017
H          9.10198       52.32388       52.79280
H          6.98444       51.40575       52.80565
H          6.12382       50.93864       51.33256
N         12.48245       51.41720       53.04229
C         13.44388       52.13996       53.86755
C         14.41375       51.23461       54.60303
O         14.44028       50.04276       54.33594
H         12.36774       50.40319       53.17170
H         12.85508       52.75342       54.58001
H         14.06929       52.80700       53.23484
N         15.31355       51.71905       55.51010
C         15.33939       53.08117       56.04172
C         16.54755       53.87164       55.55610
O         16.73862       54.97971       56.03621
C         15.31775       53.01903       57.59414
C         14.06776       52.30486       58.12422
O         16.46981       52.36157       58.06049
H         16.01345       51.05715       55.88366
H         14.45436       53.66614       55.72456
H         15.30275       54.06609       57.97951
H         16.60251       52.64167       59.00401
H         13.14996       52.82408       57.77665
H         14.03872       51.24811       57.78390
H         14.07467       52.31087       59.23548
N         17.37821       53.39801       54.57987
C         18.56551       54.11165       54.11572
C         18.36794       54.51749       52.65277
O         18.03499       53.64644       51.86195
C         19.81054       53.19375       54.27267
C         19.98296       52.65760       55.72087
C         21.09288       53.89764       53.78857
C         20.20393       53.72811       56.79490
H         17.17185       52.49263       54.13458
H         18.72765       55.00322       54.74093
H         19.66244       52.30051       53.62484
H         20.84931       51.96144       55.74069
H         19.08474       52.06670       56.00292
H         21.00551       54.18479       52.71953
H         21.29535       54.81740       54.37432
H         21.96193       53.21309       53.88002
H         19.33860       54.41724       56.86173
H         20.31831       53.23331       57.78228
H         21.12618       54.31066       56.59777
N         18.54670       55.79186       52.17745
C         19.04239       56.92261       52.95416
C         19.90981       57.83682       52.09734
O         19.42338       58.38269       51.11621
C         17.86215       57.70893       53.55487
C         18.34175       58.84566       54.41942
O         18.04044       59.99656       54.14627
O         19.10973       58.59753       55.49820
H         18.35321       55.95491       51.17621
H         19.67784       56.56636       53.78497
H         17.24666       57.03316       54.18525
H         17.21733       58.09958       52.73665
N         21.19320       58.10359       52.47640
C         22.04072       59.11219       51.85178
C         23.36981       58.50864       51.42863
O         24.00835       57.89246       52.27207
C         22.25369       60.24171       52.88739
C         23.09020       61.39504       52.37239
C         24.47905       61.25799       52.18241
C         22.48668       62.63382       52.09417
C         25.24028       62.32947       51.71081
C         23.25258       63.70325       51.61953
C         24.62762       63.55060       51.42636
H         21.56533       57.63604       53.31784
H         21.52811       59.58438       50.99350
H         22.70717       59.85485       53.82636
H         21.23854       60.61594       53.14895
H         24.98371       60.32956       52.40721
H         21.42210       62.77158       52.23576
H         26.30699       62.21188       51.56892
H         22.77938       64.65151       51.40164
H         25.21954       64.37930       51.06077
N         23.92141       58.71559       50.18802
C         23.33945       59.49375       49.09933
C         22.08901       58.85794       48.53720
O         21.06898       59.52197       48.41864
C         24.44521       59.51923       48.03000
C         25.69601       59.43977       48.87847
C         25.29299       58.36303       49.87968
H         23.16013       60.53370       49.45535
H         24.43119       58.58459       47.42455
H         24.38567       60.38085       47.33092
H         26.62918       59.22275       48.31703
H         25.81349       60.40684       49.41896
H         25.30569       57.35984       49.39821
H         25.97269       58.38086       50.75895
N         22.10924       57.54310       48.18635
C         20.96459       56.84439       47.62435
C         20.72734       57.34988       46.20382
O         21.63458       57.19059       45.39820
C         21.24047       55.32308       47.59546
C         21.39874       54.74967       49.01765
C         21.75717       53.29345       48.98216
O         22.91006       52.87236       49.53769
O         21.00790       52.48414       48.45967
H         22.98050       57.01516       48.34623
H         20.10297       56.98518       48.29709
H         22.16604       55.12684       47.00801
H         20.39287       54.80250       47.09728
H         20.44983       54.88110       49.58163
H         22.20049       55.28668       49.56662
N         19.58735       57.96694       45.76851
C         18.40734       58.28089       46.55035
H         17.52889       57.77151       46.10263
H         18.46311       57.99131       47.60942
H         18.23515       59.37710       46.51554
H         19.55168       58.25340       44.77734
Ca         8.02925       49.45552       47.85245
O          6.59320       51.97245       46.89323
H          5.79197       51.46685       46.60529
H          6.69644       52.68336       46.21251
O          5.17248       49.70373       49.17729
H          5.21413       50.68568       49.05778
H          4.46405       49.40921       48.55229
O         10.43790       50.99238       46.87380
H         11.08712       51.12554       47.60930
H          9.82148       51.76432       46.94355

Ca 1.0



