%chk=apoCaM-CA-Ng.loop3.water5.frame500.chk
%nprocshared=20
%mem=10GB
%nosave
#b3lyp/svp scf=(tight,noincore,xqc) Test 
#IOP(5/87=12) Density=Current Pop=(MK,readradii) iop(6/33=2) iop(6/42=6)

apoCaM-CA-Ng.loop3.water5.frame500 

   0  1 
C         62.20188       62.68987      100.88493
C         61.12594       63.44357      101.60551
O         61.43973       64.23276      102.48610
H         63.20509       62.97280      101.27079
H         62.05673       61.59976      101.03587
H         62.15717       62.92119       99.80064
N         59.81600       63.24006      101.28618
C         58.73114       63.93109      101.97051
C         58.84497       65.42857      101.73858
O         58.75357       65.87637      100.60396
C         57.36262       63.40080      101.50000
C         56.23010       64.01904      102.27312
O         56.15662       63.85680      103.60830
O         55.36710       64.65948      101.69478
H         59.59149       62.55256      100.54984
H         58.81940       63.69946      103.05639
H         57.32287       62.30131      101.65965
H         57.23765       63.59730      100.41222
N         59.08332       66.25121      102.79373
C         59.26442       67.69283      102.69944
C         60.67812       68.01707      103.12020
O         61.11544       67.54977      104.16373
C         58.24879       68.40237      103.60677
C         56.81991       68.24163      103.06031
C         55.76038       68.91849      103.94496
C         55.58645       68.28336      105.33848
N         55.14833       66.88780      105.25937
H         59.17385       65.82809      103.73087
H         59.11355       68.06612      101.66150
H         58.48097       69.49050      103.63868
H         58.34091       67.99355      104.63458
H         56.56633       67.17185      102.91812
H         56.78319       68.72152      102.05721
H         54.78260       68.86901      103.41871
H         56.02365       69.99222      104.06552
H         54.81459       68.86851      105.88483
H         56.52580       68.34988      105.92678
H         54.95811       66.53448      106.22438
H         54.27055       66.81531      104.69490
H         55.89378       66.28940      104.83964
N         61.45293       68.82864      102.34833
C         62.85212       69.09435      102.63517
C         63.01187       70.45741      103.27293
O         62.40607       71.42043      102.82357
C         63.67945       68.97120      101.34672
C         65.15051       69.03586      101.65113
O         65.71331       68.10546      102.44525
O         65.84174       69.92160      101.18080
H         61.03282       69.28774      101.52473
H         63.24257       68.32680      103.34042
H         63.38588       69.77312      100.63211
H         63.47849       67.98959      100.86578
N         63.86488       70.59882      104.32400
C         64.09060       71.83366      105.05026
C         64.46802       72.99262      104.16105
O         63.87735       74.05263      104.31352
H         64.40859       69.77713      104.63020
H         64.91961       71.65975      105.77107
H         63.18453       72.09724      105.63762
N         65.43296       72.86850      103.20662
C         65.88316       73.99177      102.38522
C         65.41377       73.90854      100.93451
O         65.68203       74.84689      100.19737
C         67.40733       74.20090      102.54697
C         68.27850       73.06327      102.06748
N         69.23089       73.27288      101.13348
O         68.16316       71.95247      102.55836
H         65.84820       71.93890      103.05962
H         65.42041       74.93052      102.76081
H         67.62251       74.35673      103.62641
H         67.69342       75.13560      102.01739
H         69.37893       74.20540      100.72324
H         69.84012       72.49648      100.84334
N         64.64176       72.88031      100.47124
C         64.01360       72.87635       99.15346
C         64.44990       71.71757       98.28732
O         63.72042       71.36350       97.37254
H         64.42226       72.08862      101.08934
H         64.18465       73.81656       98.58722
H         62.91722       72.79673       99.31847
N         65.66316       71.13159       98.46452
C         66.16919       70.02486       97.65524
C         67.63262       69.82973       97.99571
O         67.96798       69.60049       99.14884
C         65.31290       68.75206       97.84439
C         65.94125       67.49597       97.27970
C         66.44198       67.44048       95.96662
C         66.03195       66.35262       98.09186
C         67.04380       66.26923       95.49066
C         66.61907       65.18182       97.61075
C         67.13414       65.13766       96.30935
O         67.71450       64.01599       95.83733
H         66.27865       71.52539       99.19281
H         66.11037       70.31147       96.58231
H         64.33102       68.91404       97.35292
H         65.12008       68.59808       98.92302
H         66.38766       68.30420       95.31740
H         65.64040       66.36295       99.10148
H         67.44302       66.24131       94.48477
H         66.67517       64.31211       98.25355
H         67.79437       63.21437       96.37455
N         68.56620       70.01339       97.02337
C         69.96677       70.25625       97.31648
C         70.10346       71.73017       97.66329
O         70.76698       72.04175       98.64015
C         70.86838       69.84450       96.12026
C         70.64716       68.36566       95.69659
C         72.35774       70.09877       96.43255
C         70.94071       67.32141       96.78132
H         68.23889       70.24564       96.07298
H         70.29228       69.65840       98.19436
H         70.60008       70.47462       95.24291
H         71.29338       68.14748       94.81851
H         69.59413       68.23133       95.36969
H         72.98752       69.81446       95.56325
H         72.54491       71.16963       96.63927
H         72.69062       69.52607       97.32263
H         71.99668       67.37081       97.11626
H         70.26838       67.45024       97.65372
H         70.76339       66.30635       96.36831
N         69.43020       72.68956       96.95210
C         69.45818       74.10236       97.31905
C         70.80880       74.73861       97.03751
O         71.02138       75.86204       97.47213
C         68.35183       74.88323       96.59113
O         67.09268       74.32987       96.87782
H         68.82617       72.40215       96.16898
H         69.24310       74.17469       98.40600
H         68.51204       74.84683       95.49313
H         68.37848       75.95899       96.88730
H         66.70227       74.85598       97.62387
N         71.77518       74.07826       96.33198
C         73.12450       74.57495       96.10971
C         73.80566       74.80800       97.44493
O         74.35254       75.87629       97.68297
C         73.11753       75.80906       95.19545
H         71.57480       73.14464       95.95093
H         73.69286       73.77690       95.58173
H         72.62075       75.55782       94.23390
H         72.57608       76.65867       95.66005
H         74.15805       76.12956       94.97788
N         73.74044       73.83349       98.39521
C         74.28592       73.96564       99.73439
C         75.09600       72.73627      100.07311
O         74.55340       71.64025      100.03087
C         73.13814       74.11495      100.73517
H         73.21475       72.97333       98.17970
H         74.91169       74.88117       99.82279
H         73.54351       74.22556      101.76412
H         72.54661       75.02377      100.49273
H         72.46276       73.23375      100.70486
N         76.40191       72.84730      100.44312
C         77.23482       71.72039      100.84643
C         77.38389       70.73690       99.69608
O         77.06036       69.56560       99.84601
C         76.67893       71.04202      102.13284
C         76.36545       72.01324      103.28972
C         77.54837       72.74072      103.87068
O         78.68219       72.55145      103.46120
O         77.34850       73.60804      104.88102
H         76.83411       73.78360      100.46184
H         78.24863       72.11238      101.07208
H         77.39110       70.26201      102.48121
H         75.72492       70.52739      101.89155
H         75.89810       71.42905      104.11153
H         75.61924       72.76075      102.94569
N         77.86557       71.16849       98.49730
C         78.02024       70.30769       97.34113
H         79.08281       70.30743       97.02133
H         77.71644       69.25942       97.54657
H         77.39350       70.69407       96.51020
H         78.12711       72.16015       98.38989
Ca        68.59061       69.05854      102.03946
O         71.01031       69.40676      103.66765
H         70.56352       68.88993      104.38458
H         71.91733       69.01543      103.60527
O         67.29358       69.83382      104.71079
H         67.37905       69.28794      105.53198
H         67.72351       70.69562      104.93982
O         68.23122       66.76385      100.14547
H         67.44813       66.59261      100.72660
H         68.77259       65.93807      100.20704
O         70.90263       68.24401      100.34457
H         71.65758       68.85010      100.55061
H         71.28601       67.33339      100.40313
O         68.25371       66.39306      103.63080
H         68.48588       65.70945      102.95332
H         69.12526       66.67401      104.00723

Ca 1.0



