%chk=apoCaM-CA-Ng.loop1.water2.frame1048.chk
%nprocshared=20
%mem=10GB
%nosave
#b3lyp/svp scf=(tight,noincore,xqc) Test 
#IOP(5/87=12) Density=Current Pop=(MK,readradii) iop(6/33=2) iop(6/42=6)

apoCaM-CA-Ng.loop1.water2.frame1048 

   0  1 
C         17.54878       83.91427       57.35382
C         17.47853       82.66689       58.18659
O         18.39911       82.43138       58.95119
H         17.62424       84.80068       58.01807
H         18.44502       83.87199       56.70003
H         16.65033       84.02980       56.71194
N         16.39288       81.84387       58.11077
C         16.21716       80.61974       58.89433
C         17.02664       79.44272       58.33328
O         16.44339       78.48565       57.84302
C         14.70817       80.27767       59.05980
C         13.96682       79.91444       57.79538
O         13.40691       78.69500       57.67915
O         13.83203       80.72069       56.89004
H         15.61785       82.15996       57.51381
H         16.54993       80.80963       59.94024
H         14.19206       81.13889       59.53745
H         14.63273       79.41789       59.76257
N         18.38321       79.41290       58.45595
C         19.22118       78.29115       58.04178
C         19.69015       77.50380       59.26947
O         19.36730       76.32443       59.30967
C         20.36685       78.73416       57.10260
C         19.83524       79.26686       55.76058
C         20.99581       79.64551       54.82488
C         20.54055       80.02171       53.40351
N         19.68559       81.20888       53.37612
H         18.83322       80.19105       58.93403
H         18.61946       77.56736       57.44522
H         20.99836       77.84394       56.88786
H         21.01445       79.50274       57.56078
H         19.18857       80.15195       55.93997
H         19.22945       78.46902       55.27743
H         21.67237       78.76850       54.72512
H         21.57778       80.48276       55.26877
H         20.00364       79.16320       52.94213
H         21.44945       80.22069       52.79269
H         18.78317       81.02594       53.86915
H         20.17899       82.01983       53.81443
H         19.46975       81.44385       52.38004
N         20.36693       78.00784       60.34957
C         20.81896       79.37929       60.54852
C         19.84701       80.12957       61.45012
O         18.85834       79.55303       61.88350
C         22.28118       79.38557       61.04164
C         22.46048       78.72559       62.38186
O         21.84362       79.22413       63.46815
O         23.18143       77.74704       62.49455
H         20.51321       77.36012       61.14057
H         20.82579       79.92951       59.60128
H         22.64978       80.42706       61.10825
H         22.90785       78.86293       60.28492
N         20.02033       81.45837       61.69444
C         19.03121       82.27510       62.38240
C         18.81031       81.91662       63.83625
O         19.45465       81.02207       64.36148
H         20.84197       81.93747       61.29659
H         18.06324       82.18970       61.84126
H         19.35310       83.33777       62.34116
N         17.89890       82.63926       64.55078
C         17.57137       82.41890       65.96225
C         16.87715       83.65253       66.54506
O         16.04479       84.23478       65.86358
C         16.61570       81.22373       66.16340
C         17.22949       79.89882       65.83492
O         18.31376       79.47281       66.51230
O         16.72777       79.18519       64.98219
H         17.44353       83.42201       64.05640
H         18.50343       82.22432       66.52091
H         15.69120       81.38450       65.56612
H         16.32271       81.17262       67.23546
N         17.07320       84.07825       67.83010
C         17.94474       83.42925       68.79632
C         19.40247       83.59047       68.45703
O         19.72888       84.25411       67.48385
H         16.51957       84.88280       68.16411
H         17.67780       82.35354       68.87143
H         17.78840       83.88862       69.79615
N         20.34913       83.01343       69.24646
C         21.77656       83.15052       68.97045
C         22.17239       82.48379       67.65334
O         21.38124       81.75680       67.06819
C         22.63675       82.63007       70.15407
C         22.46770       81.12885       70.43262
O         22.30111       83.35644       71.30902
H         20.03215       82.50417       70.08475
H         21.98592       84.23969       68.87506
H         23.70623       82.81827       69.90079
H         23.08956       83.32768       71.91203
H         22.75045       80.52849       69.54612
H         23.12621       80.83232       71.27570
H         21.42689       80.88038       70.71971
N         23.40586       82.73733       67.12275
C         23.94494       82.17945       65.88206
C         24.16491       80.64174       65.99325
O         23.59816       80.07624       67.13387
C         23.11685       82.50825       64.58996
C         22.82893       84.01395       64.33686
C         23.88670       81.99518       63.35266
C         21.79675       84.64407       65.26333
H         24.02025       83.38991       67.63324
H         24.94247       82.65490       65.74112
H         22.14372       81.97153       64.61882
H         22.38024       84.10837       63.32206
H         23.77080       84.60318       64.35008
H         24.87125       82.50444       63.26622
H         24.05792       80.90137       63.39644
H         23.31184       82.19796       62.42595
H         22.16407       84.72705       66.29972
H         21.57301       85.67515       64.91868
H         20.85558       84.05440       65.22246
N         25.56393       80.21937       65.80724
C         25.65568       78.75646       65.56911
C         25.71172       77.95235       66.87043
O         25.65326       76.73385       66.80345
C         26.90220       78.41069       64.70191
C         28.21360       78.86332       65.35835
O         26.80205       79.01949       63.43939
H         25.90249       80.71945       64.95416
H         24.76001       78.42009       64.99644
H         26.96862       77.30522       64.56422
H         26.18300       78.46346       62.89764
H         28.35320       78.37414       66.34503
H         29.07267       78.58871       64.71035
H         28.22389       79.96497       65.50069
N         25.89133       78.55301       68.07961
C         26.03689       77.81344       69.33336
C         24.73926       77.13594       69.74336
O         23.74288       77.83045       69.88841
C         26.48599       78.76533       70.47196
C         27.88402       79.34034       70.21183
O         25.56094       79.81288       70.62140
H         25.99251       79.57688       68.10459
H         26.83619       77.04711       69.21957
H         26.53420       78.16641       71.40932
H         25.70650       80.20336       71.52204
H         28.18563       79.98683       71.06247
H         28.62294       78.51656       70.11902
H         27.90949       79.95062       69.28566
N         24.69082       75.78925       70.00504
C         23.50585       75.11734       70.54456
C         22.34318       75.28705       69.58648
O         21.36618       75.94061       69.92670
C         23.20395       75.64168       71.97569
C         24.29000       75.20436       72.98053
C         24.03652       75.74240       74.40329
C         24.32877       77.24646       74.58337
N         25.76270       77.54058       74.49627
H         25.53692       75.21918       69.85631
H         23.69235       74.02355       70.63587
H         22.24060       75.21030       72.32775
H         23.09154       76.74280       71.96630
H         25.30497       75.48609       72.63648
H         24.25545       74.09378       73.02673
H         24.67824       75.19050       75.12377
H         22.97892       75.53244       74.67488
H         23.98179       77.54263       75.59798
H         23.76470       77.85792       73.84793
H         26.28378       76.99724       75.22329
H         26.14157       77.31058       73.55301
H         25.91645       78.55943       74.67282
N         22.40687       74.72527       68.34406
C         21.42551       74.99261       67.29827
C         22.14161       75.65450       66.09933
O         21.29055       76.57634       65.49433
C         20.60906       73.75277       66.88088
C         19.76900       73.19248       68.03431
C         18.92484       72.04115       67.56483
O         18.08933       72.20707       66.68952
O         19.07803       70.82167       68.11437
H         23.21937       74.13322       68.13130
H         20.69280       75.74045       67.67661
H         21.27053       72.95187       66.49296
H         19.91997       74.06121       66.06279
H         19.09679       73.98337       68.43219
H         20.44055       72.85207       68.85150
N         22.69849       74.74861       65.07932
C         23.83874       73.96377       65.55397
H         24.57420       74.59816       66.08727
H         23.50378       73.13200       66.20195
H         24.34810       73.49371       64.68612
H         23.06427       75.35904       64.31108
Ca        22.28913       78.46629       66.23167
O         19.08531       77.47237       63.89211
H         19.38265       78.34246       64.25820
H         18.48663       77.10457       64.58904
O         20.46162       78.77919       68.79163
H         20.34671       78.84079       69.77259
H         21.28028       78.23610       68.67641

Ca 1.0



