%chk=apoCaM-CA-Ng.loop1.water3.frame1200.chk
%nprocshared=20
%mem=10GB
%nosave
#b3lyp/svp scf=(tight,noincore,xqc) Test 
#IOP(5/87=12) Density=Current Pop=(MK,readradii) iop(6/33=2) iop(6/42=6)

apoCaM-CA-Ng.loop1.water3.frame1200 

   0  1 
C         32.11511       17.42542       78.52966
C         32.13226       17.20320       80.01032
O         31.34851       16.39986       80.49647
H         33.10392       17.16287       78.10238
H         31.33427       16.79704       78.04870
H         31.88950       18.49197       78.31709
N         32.98670       17.91669       80.79978
C         33.00797       17.79797       82.25433
C         32.43879       19.05613       82.87932
O         32.99534       19.61446       83.81472
C         34.40862       17.39020       82.75323
C         35.50401       18.30784       82.27574
O         36.48603       17.82215       81.49201
O         35.51352       19.48724       82.58829
H         33.60484       18.61149       80.35342
H         32.30861       17.00143       82.58011
H         34.62152       16.36996       82.36657
H         34.41584       17.33845       83.86358
N         31.25757       19.52098       82.39776
C         30.49141       20.61198       82.97607
C         29.97338       20.20622       84.35155
O         30.24174       20.94770       85.28569
C         29.35450       21.03982       82.01452
C         29.95692       21.57530       80.69832
C         28.90053       21.82503       79.62129
C         29.57800       22.29093       78.32219
N         28.60850       22.42499       77.23757
H         30.86738       19.04738       81.57062
H         31.14336       21.50943       83.08638
H         28.73818       21.84221       82.47680
H         28.68632       20.18398       81.79703
H         30.66637       20.83277       80.27833
H         30.52355       22.50996       80.90710
H         28.16678       22.58586       79.96497
H         28.36541       20.87004       79.42476
H         30.35028       21.54850       78.01702
H         30.08437       23.26678       78.49556
H         27.87361       23.12302       77.49256
H         29.10545       22.74811       76.37597
H         28.16637       21.49739       77.04074
N         29.27398       19.05624       84.62036
C         28.91401       17.99946       83.67180
C         29.67789       16.71437       83.97462
O         30.44285       16.66851       84.92952
C         27.38618       17.83063       83.60818
C         26.76079       17.61910       84.94934
O         27.06425       16.53785       85.69072
O         25.97069       18.44593       85.37236
H         29.01177       18.89476       85.60635
H         29.21035       18.25325       82.65077
H         27.10565       16.99664       82.93124
H         26.96428       18.76503       83.17455
N         29.59751       15.66225       83.10932
C         30.47203       14.49857       83.16434
C         30.28940       13.61090       84.36715
O         29.42460       13.86107       85.19091
H         28.96627       15.73459       82.29727
H         31.52711       14.84137       83.13178
H         30.28793       13.87115       82.26567
N         31.08903       12.50639       84.48472
C         30.99958       11.52230       85.56899
C         31.55488       10.15955       85.12575
O         32.28330       10.10412       84.14565
C         31.75243       12.03366       86.82845
C         31.04772       13.21387       87.40799
O         29.76685       13.07098       87.79385
O         31.58889       14.30662       87.45581
H         31.75435       12.34082       83.71563
H         29.92557       11.36365       85.77139
H         32.80125       12.28746       86.55681
H         31.80232       11.27584       87.62782
N         31.25516        8.98532       85.76575
C         30.37039        8.85199       86.91177
C         28.92614        9.19396       86.60945
O         28.52307        9.22993       85.45534
H         31.69279        8.11888       85.41414
H         30.74263        9.46891       87.74567
H         30.38625        7.80506       87.28483
N         28.09564        9.48020       87.64772
C         26.67971        9.82681       87.52351
C         26.47376       11.05397       86.64375
O         27.18341       12.03504       86.80062
C         26.06692       10.08047       88.92429
C         26.07062        8.80759       89.78345
O         24.73846       10.51647       88.78133
H         28.51447        9.46485       88.58997
H         26.12798        8.97197       87.07333
H         26.67187       10.87119       89.42770
H         24.51254       11.02599       89.60327
H         25.46157        8.01694       89.29506
H         27.09481        8.41544       89.94413
H         25.63211        9.02753       90.77915
N         25.46692       11.05329       85.71735
C         25.12925       12.13942       84.79639
C         24.69968       13.40160       85.53126
O         25.51035       14.01584       86.20956
C         26.27423       12.41023       83.77760
C         26.59508       11.10142       83.01001
C         25.87597       13.54071       82.80221
C         27.79157       11.21115       82.06752
H         24.87785       10.20921       85.65077
H         24.25561       11.79238       84.19871
H         27.18004       12.73566       84.32974
H         25.70251       10.77167       82.43356
H         26.84194       10.30243       83.73852
H         25.66558       14.48312       83.34949
H         26.69665       13.77520       82.09652
H         24.96940       13.25790       82.22473
H         27.97911       10.21932       81.60479
H         27.60050       11.93196       81.24834
H         28.69661       11.51671       82.63356
N         23.42464       13.86738       85.38700
C         22.95028       15.11659       85.96836
C         21.86833       14.89533       87.00963
O         21.40259       15.89377       87.53901
C         22.48258       16.09521       84.85690
C         21.29105       15.59246       84.03645
O         23.54642       16.35719       83.98019
H         22.75955       13.31901       84.82266
H         23.77718       15.63127       86.50775
H         22.15003       17.04914       85.33564
H         24.05254       17.11729       84.36462
H         21.00070       16.37029       83.29768
H         21.54991       14.67234       83.47467
H         20.41749       15.39237       84.69107
N         21.43748       13.64989       87.39533
C         20.48140       13.47044       88.49041
C         21.13723       14.01423       89.75074
O         22.05849       13.39559       90.26590
C         20.06416       11.98582       88.63434
C         19.05491       11.77464       89.76505
O         19.47281       11.54796       87.43583
H         21.82082       12.81460       86.93205
H         19.56792       14.05691       88.24118
H         20.96160       11.36445       88.87106
H         20.18166       11.11441       86.89257
H         18.13397       12.36696       89.57804
H         18.78025       10.69937       89.82118
H         19.48674       12.07252       90.74328
N         20.83544       15.28273       90.15113
C         21.63024       16.09738       91.06695
C         23.08141       16.21230       90.61141
O         23.51154       15.49737       89.71945
C         21.61566       15.61056       92.52595
C         20.21524       15.42864       93.11073
C         20.32524       15.28527       94.63917
C         18.98754       14.99108       95.32701
N         18.52511       13.63017       95.05147
H         20.06542       15.77246       89.66953
H         21.18766       17.11955       91.04591
H         22.14604       16.38260       93.12613
H         22.17453       14.65510       92.63286
H         19.75773       14.53694       92.63423
H         19.58426       16.31798       92.89234
H         20.70895       16.25301       95.03453
H         21.05393       14.49184       94.91444
H         18.22128       15.73599       95.01760
H         19.13891       15.09109       96.42484
H         17.64139       13.45810       95.58192
H         18.33634       13.49473       94.03398
H         19.24462       12.94110       95.37264
N         23.90734       17.10777       91.21315
C         25.34282       17.16465       90.96467
C         25.68441       17.26502       89.48548
O         26.48359       16.45357       89.04767
C         26.02140       18.28352       91.78181
C         25.88181       18.05158       93.29828
C         26.57289       19.13019       94.07700
O         27.57951       18.81759       94.91474
O         26.21384       20.29217       93.97058
H         23.49206       17.76058       91.89214
H         25.79262       16.20935       91.32433
H         25.60017       19.27133       91.51119
H         27.10771       18.28776       91.53753
H         26.32810       17.06700       93.55958
H         24.81749       18.04025       93.60811
N         25.14687       18.16218       88.61553
C         24.12435       19.13181       88.92648
H         23.19954       18.62225       89.26134
H         24.47839       19.84807       89.68828
H         23.87090       19.70026       88.00580
H         25.46602       18.11970       87.64190
Ca        28.41216       14.85315       87.91905
O         28.58854       13.89664       90.61661
H         29.43605       14.29980       90.93102
H         28.04714       13.77133       91.43516
O         30.07608       17.08569       88.85471
H         30.22021       16.38199       89.53658
H         30.41260       16.68787       88.01256
O         25.68419       13.62475       89.44441
H         26.43420       13.19586       88.96495
H         24.89755       13.45642       88.86801

Ca 1.0



