%chk=apoCaM-CA-Ng.loop1.water4.frame282.chk
%nprocshared=20
%mem=10GB
%nosave
#b3lyp/svp scf=(tight,noincore,xqc) Test 
#IOP(5/87=12) Density=Current Pop=(MK,readradii) iop(6/33=2) iop(6/42=6)

apoCaM-CA-Ng.loop1.water4.frame282 

   0  1 
C         60.41930       43.92777       35.02743
C         59.81729       45.29564       35.15624
O         59.73406       46.01967       34.17452
H         61.30513       43.84980       35.69281
H         59.67282       43.16345       35.33279
H         60.73298       43.72616       33.98225
N         59.35767       45.70774       36.36624
C         58.73407       47.00635       36.59623
C         59.74316       48.15555       36.59413
O         59.32166       49.25186       36.91135
C         58.01532       47.01276       37.97535
C         56.88790       46.01561       38.06829
O         57.12596       44.69353       37.97849
O         55.74599       46.40430       38.25811
H         59.42366       45.04189       37.15142
H         57.95097       47.19261       35.82704
H         57.57232       48.01905       38.14608
H         58.74602       46.82137       38.79149
N         61.07701       48.01042       36.33425
C         62.04437       49.06418       36.64964
C         62.85246       49.54049       35.45595
O         63.30598       48.68875       34.70388
C         63.02492       48.51915       37.69835
C         62.29339       48.06283       38.97055
C         63.25449       47.68021       40.10114
C         63.99664       48.90360       40.66920
N         64.84116       48.52599       41.79837
H         61.45212       47.10258       36.02794
H         61.54277       49.92529       37.11251
H         63.73685       49.32578       37.93452
H         63.60938       47.66656       37.28552
H         61.67488       47.17387       38.71724
H         61.61253       48.86263       39.33632
H         63.97490       46.91174       39.74413
H         62.64760       47.23680       40.91951
H         63.24915       49.65572       41.00906
H         64.63751       49.37463       39.89704
H         65.30365       49.38434       42.17627
H         64.26080       48.09300       42.55273
H         65.57675       47.85330       41.48240
N         63.22220       50.85153       35.25413
C         62.84356       52.04626       36.03196
C         63.17954       51.91085       37.51420
O         62.27506       51.89525       38.33627
C         61.38001       52.45068       35.73796
C         61.19318       52.74819       34.27344
O         62.23640       52.63139       33.42584
O         60.08656       53.02645       33.84213
H         63.86704       51.02432       34.46628
H         63.43785       52.91387       35.66609
H         61.11415       53.36418       36.30599
H         60.68173       51.64299       36.02949
N         64.46415       51.80755       37.95911
C         65.60749       51.96656       37.07818
C         66.94214       51.66008       37.73697
O         66.97257       51.15422       38.84900
H         64.61521       51.66496       38.96873
H         65.59243       53.01020       36.70248
H         65.52878       51.26595       36.22329
N         68.11760       51.87891       37.07505
C         68.17599       52.59991       35.80582
C         67.94627       54.08778       36.04588
O         68.00753       54.52871       37.18696
C         69.49819       52.35226       35.04132
C         70.73460       52.89729       35.71304
O         71.40695       53.74544       35.14860
O         71.13576       52.43130       36.91046
H         68.98670       51.54792       37.51600
H         67.37777       52.19673       35.14569
H         69.40790       52.82396       34.03752
H         69.62658       51.25979       34.88183
N         67.66975       54.92437       35.00999
C         67.50310       56.35931       35.17490
C         66.38403       56.72428       36.12983
O         66.64610       57.40961       37.10841
H         67.59074       54.53354       34.05856
H         67.28305       56.81506       34.18499
H         68.46041       56.79247       35.53998
N         65.10089       56.33923       35.88387
C         63.97216       56.76385       36.71529
C         64.08692       56.21596       38.13157
O         64.10556       55.00581       38.30888
C         62.62260       56.32659       36.09477
C         62.38842       56.97907       34.72673
O         61.57493       56.70617       36.95017
H         64.92643       55.76371       35.04641
H         63.96413       57.87651       36.75278
H         62.63751       55.21889       35.98482
H         60.79394       56.13777       36.72112
H         62.35713       58.08475       34.82997
H         63.18548       56.71596       34.00588
H         61.41876       56.63388       34.30981
N         64.14592       57.07284       39.19464
C         64.23565       56.62503       40.58640
C         63.00266       55.83772       41.03725
O         63.09404       55.16078       42.05153
C         64.50333       57.84250       41.54110
C         64.81038       57.45962       43.01407
C         63.32458       58.84154       41.54190
C         66.02794       56.55130       43.17823
H         64.16743       58.08202       38.99139
H         65.11460       55.94707       40.62228
H         65.39941       58.37569       41.15166
H         63.93071       56.98100       43.49286
H         65.02111       58.39370       43.58091
H         62.40625       58.36971       41.95033
H         63.56959       59.72312       42.17208
H         63.09620       59.22239       40.52743
H         66.92727       57.02833       42.73514
H         66.21288       56.38114       44.26018
H         65.85949       55.56244       42.70703
N         61.80976       55.91116       40.37281
C         60.60349       55.20574       40.81193
C         60.10638       54.25640       39.73663
O         60.64112       54.26236       38.63787
C         59.51107       56.21385       41.25154
C         59.06886       57.16088       40.12945
O         59.98580       56.98711       42.32325
H         61.73996       56.51100       39.54091
H         60.83659       54.57072       41.69443
H         58.60238       55.65653       41.57808
H         59.94743       56.41332       43.13294
H         59.90912       57.80056       39.78822
H         58.67011       56.58965       39.26539
H         58.26805       57.83233       40.50534
N         59.11502       53.35777       40.01362
C         58.74592       52.29971       39.07343
C         57.72669       52.75584       38.03909
O         57.07200       53.77230       38.22498
C         58.28304       51.01237       39.80826
C         56.98120       51.17958       40.60719
O         59.30904       50.58552       40.66876
H         58.75143       53.33096       40.97677
H         59.66601       52.00793       38.52193
H         58.10306       50.23467       39.03246
H         59.22368       49.60043       40.76191
H         56.15047       51.49368       39.94236
H         56.70397       50.20743       41.06876
H         57.08968       51.92094       41.42419
N         57.55930       52.01558       36.90362
C         56.54136       52.27654       35.88870
C         56.82619       51.66585       34.49583
O         56.00531       51.88880       33.61645
C         55.17969       51.77142       36.42526
C         55.16070       50.23231       36.57746
C         53.84124       49.67798       37.13236
C         53.61791       50.03323       38.61057
N         52.38937       49.41837       39.11251
H         58.16128       51.20543       36.80927
H         56.49040       53.37592       35.72544
H         54.36790       52.07383       35.72820
H         54.98327       52.26021       37.40129
H         55.99384       49.88968       37.22836
H         55.30759       49.78275       35.57172
H         53.88656       48.56938       37.05558
H         52.99068       50.03296       36.51033
H         53.55073       51.13344       38.74249
H         54.47903       49.65795       39.20778
H         51.56381       49.78247       38.58375
H         52.44002       48.37795       39.01476
H         52.27645       49.65531       40.12461
N         57.93374       50.91561       34.19347
C         58.19127       50.36084       32.86292
C         57.12808       49.35351       32.47436
O         56.96619       48.35582       33.16399
C         59.59248       49.70174       32.82836
C         60.02815       49.07393       31.48809
C         59.93473       49.99048       30.28966
O         58.86032       50.17294       29.74508
O         61.01921       50.62630       29.80957
H         58.65195       50.74609       34.90214
H         58.20684       51.20192       32.13646
H         59.65235       48.90881       33.60802
H         60.33852       50.47481       33.09312
H         59.44313       48.15426       31.26881
H         61.08536       48.75447       31.62131
N         56.38586       49.55039       31.34804
C         55.39633       48.61298       30.86048
H         54.41155       49.11925       30.79294
H         55.69244       48.27029       29.84579
H         55.29750       47.72164       31.51392
H         56.53808       50.40091       30.78616
Ca        61.90526       52.01055       31.31627
O         59.44929       53.77526       30.37202
H         59.83078       54.66045       30.14593
H         59.36052       53.78986       31.35765
O         65.37270       53.78658       30.69775
H         65.63445       54.71635       30.47931
H         65.81808       53.60011       31.56235
O         62.39686       54.69250       28.78111
H         61.79759       54.21821       28.15174
H         62.94924       55.27959       28.20617
O         62.61002       55.37051       31.72065
H         63.01854       56.16050       31.28515
H         63.33868       54.98732       32.27071

Ca 1.0



