%chk=apoCaM-CA-Ng.loop1.water5.frame623.chk
%nprocshared=20
%mem=10GB
%nosave
#b3lyp/svp scf=(tight,noincore,xqc) Test 
#IOP(5/87=12) Density=Current Pop=(MK,readradii) iop(6/33=2) iop(6/42=6)

apoCaM-CA-Ng.loop1.water5.frame623 

   0  1 
C         64.55331       28.59170       11.18487
C         63.16779       29.15477       11.09138
O         62.59589       29.16353       10.01063
H         65.24925       29.37720       11.54801
H         64.55983       27.74059       11.89743
H         64.90272       28.23509       10.19257
N         62.56936       29.65806       12.20505
C         61.23541       30.24588       12.21120
C         61.33231       31.74235       12.51943
O         62.43387       32.26706       12.61533
C         60.30509       29.42911       13.14438
C         60.76257       29.40860       14.56933
O         61.02117       28.35878       15.13525
O         60.91882       30.57256       15.20619
H         63.09467       29.64299       13.09368
H         60.77319       30.18284       11.20166
H         60.24778       28.38528       12.76405
H         59.27728       29.84621       13.11228
N         60.20512       32.50449       12.59803
C         60.20260       33.97248       12.61780
C         61.04986       34.65725       13.70224
O         61.33716       35.83260       13.52230
C         58.75181       34.50640       12.48105
C         57.76288       34.07418       13.58935
C         56.31476       34.35822       13.13426
C         55.22508       33.91007       14.12681
N         55.23150       32.46312       14.36232
H         59.30558       32.01486       12.50107
H         60.71625       34.26942       11.67563
H         58.37716       34.08347       11.52174
H         58.74368       35.61317       12.37607
H         57.99723       34.59377       14.54285
H         57.84577       32.98557       13.76058
H         56.12661       33.83199       12.17101
H         56.19846       35.44877       12.95572
H         54.23930       34.18901       13.68928
H         55.33651       34.45015       15.09102
H         55.16873       31.94333       13.45652
H         56.09061       32.17625       14.88196
H         54.40233       32.21105       14.94787
N         61.55719       34.00178       14.78637
C         62.60930       34.55271       15.65686
C         63.75484       33.54147       15.72172
O         63.46887       32.37229       15.92516
C         62.06244       34.94567       17.05612
C         61.43589       33.83205       17.84677
O         60.23688       33.84547       18.07464
O         62.18144       32.80085       18.28036
H         61.23056       33.04500       14.97375
H         62.99554       35.51023       15.25210
H         61.29902       35.73760       16.89195
H         62.88114       35.39305       17.66219
N         65.07801       33.84450       15.58178
C         65.66632       35.16236       15.42829
C         65.46330       35.78395       14.07002
O         64.73748       35.24974       13.24272
H         65.74711       33.06229       15.67333
H         66.76756       35.03924       15.53435
H         65.32599       35.83921       16.23962
N         66.16512       36.91495       13.76600
C         66.12162       37.57979       12.46689
C         67.43031       37.38348       11.72557
O         68.34906       36.79117       12.27787
C         65.75890       39.07209       12.63369
C         66.77137       39.90906       13.38478
O         67.92626       39.38769       13.84427
O         66.54459       41.09408       13.56633
H         66.80806       37.28467       14.48217
H         65.33734       37.10820       11.83555
H         64.78506       39.13327       13.16504
H         65.62673       39.52716       11.62929
N         67.55612       37.79558       10.43010
C         68.72554       37.48776        9.62402
C         68.33133       36.54264        8.51621
O         68.76698       36.72646        7.38958
H         66.76281       38.26647        9.96927
H         69.50845       36.98946       10.22871
H         69.17643       38.41912        9.21643
N         67.46586       35.51741        8.77535
C         67.00744       34.55896        7.78009
C         67.30779       33.16547        8.28494
O         66.83114       32.78873        9.34611
C         65.49478       34.72244        7.52257
C         65.18448       36.09646        6.92437
O         65.05669       33.74285        6.61415
H         67.08176       35.42179        9.72741
H         67.52804       34.72109        6.81034
H         64.93118       34.63583        8.48222
H         64.78997       32.94804        7.14648
H         64.09379       36.18644        6.73786
H         65.49125       36.90904        7.61550
H         65.71945       36.22413        5.95785
N         68.13099       32.35879        7.56862
C         68.56927       31.04686        8.02462
C         69.91372       31.23069        8.69819
O         70.10176       30.75271        9.81152
C         68.64784       30.05150        6.83296
C         67.36795       30.04943        5.95398
C         68.97454       28.63203        7.33466
C         66.06799       29.71305        6.68777
H         68.54366       32.73400        6.70238
H         67.85375       30.63331        8.77066
H         69.47649       30.37016        6.16154
H         67.50621       29.32564        5.12107
H         67.24487       31.05219        5.49127
H         69.93992       28.62052        7.88224
H         68.18644       28.25867        8.02201
H         69.06188       27.93089        6.47795
H         65.22648       29.74868        5.96359
H         66.10353       28.69590        7.12579
H         65.86158       30.45577        7.48550
N         70.85260       32.03028        8.12087
C         72.11718       32.40190        8.72965
C         73.23271       32.19899        7.71163
O         72.94795       31.80211        6.58238
C         72.00892       33.88430        9.20043
C         70.88800       34.05544       10.23729
O         73.20877       34.31096        9.78784
H         70.62897       32.48785        7.22314
H         72.33050       31.76984        9.62146
H         71.78128       34.51682        8.30905
H         73.21806       35.30289        9.74304
H         70.84263       35.11106       10.57204
H         69.89788       33.79060        9.81353
H         71.08537       33.41792       11.12608
N         74.52780       32.45802        8.02406
C         75.62523       32.33381        7.07959
C         76.63372       31.33340        7.60033
O         76.89404       30.35449        6.92021
C         76.24679       33.72964        6.80312
C         77.43954       33.65307        5.84142
O         76.65114       34.34488        7.99979
H         74.75834       32.77152        8.97918
H         75.26016       31.95840        6.09485
H         75.44582       34.34462        6.32720
H         76.63328       35.32548        7.84380
H         78.26739       33.06194        6.28853
H         77.13654       33.18377        4.88203
H         77.82088       34.67475        5.63150
N         77.27095       31.54678        8.78868
C         78.35460       30.70899        9.26890
C         78.05845       30.19508       10.66172
O         77.76032       30.98783       11.54308
C         79.63993       31.56218        9.29435
C         80.91217       30.78063        9.67664
C         81.30029       29.73178        8.62144
C         82.62404       29.04600        8.97792
N         83.00855       28.09026        7.93941
H         77.03370       32.37617        9.34785
H         78.52146       29.86035        8.57791
H         79.50223       32.39592       10.01802
H         79.79960       32.01581        8.29124
H         80.78984       30.30321       10.67304
H         81.74132       31.51706        9.75025
H         81.41245       30.23844        7.63778
H         80.51644       28.95165        8.53512
H         82.52042       28.51502        9.94937
H         83.42408       29.81193        9.08118
H         83.14143       28.58681        7.02809
H         83.90975       27.63459        8.20925
H         82.27307       27.35393        7.83458
N         78.24600       28.87751       10.95257
C         78.21760       28.38326       12.32348
C         76.79842       28.27270       12.86289
O         76.52529       28.93781       13.85253
C         79.03551       27.07967       12.48886
C         80.49831       27.28827       12.04600
C         81.34246       26.08018       12.31871
O         82.41372       26.17892       13.12914
O         81.07813       25.01052       11.79389
H         78.56913       28.25457       10.19912
H         78.76707       29.11707       12.95937
H         78.59978       26.23350       11.92341
H         79.02973       26.80742       13.56784
H         80.93108       28.15546       12.59145
H         80.54583       27.50422       10.95901
N         75.81905       27.48275       12.32932
C         75.93092       26.65505       11.14555
H         76.90759       26.72664       10.64420
H         75.75052       25.59488       11.42114
H         75.15976       26.96829       10.41158
H         74.90081       27.47200       12.80045
Ca        61.60926       30.88165       17.30432
O         61.76373       30.06546       20.25351
H         61.52634       29.27368       20.79809
H         62.65922       30.33232       20.58022
O         58.88016       29.93246       18.09626
H         58.82405       30.54276       18.87347
H         59.23611       29.08764       18.46941
O         62.01442       27.48120       18.28521
H         61.09149       27.29136       17.98099
H         62.03074       27.18062       19.22852
O         64.78536       31.08866       18.64654
H         64.92992       31.10577       19.62589
H         65.14718       31.95327       18.32762
O         64.32360       28.91738       16.18848
H         64.28282       28.04408       15.72353
H         65.24558       28.96456       16.54690

Ca 1.0



