%chk=apoCaM-CA-Ng.loop2.water5.frame83.chk
%nprocshared=20
%mem=10GB
%nosave
#b3lyp/svp scf=(tight,noincore,xqc) Test 
#IOP(5/87=12) Density=Current Pop=(MK,readradii) iop(6/33=2) iop(6/42=6)

apoCaM-CA-Ng.loop2.water5.frame83 

   -2  1 
C         35.44342       53.82199       24.43488
C         35.32942       52.81765       25.54546
O         36.28838       52.64790       26.28149
H         35.64994       54.82497       24.86544
H         36.27601       53.54050       23.75710
H         34.50639       53.88212       23.84220
N         34.17316       52.12464       25.74013
C         33.98252       51.17089       26.83025
C         33.64495       49.76976       26.33808
O         33.39417       48.91773       27.17871
C         32.90553       51.70543       27.80203
C         31.51053       51.84050       27.24138
O         30.53270       52.31649       28.03466
O         31.24424       51.51857       26.09428
H         33.38295       52.30725       25.10414
H         34.91391       51.07510       27.43101
H         33.23512       52.70302       28.16522
H         32.85157       51.02954       28.68310
N         33.63396       49.44226       25.00986
C         33.29966       48.11574       24.50364
C         34.25240       47.06219       25.04796
O         33.81205       46.12442       25.69871
C         31.82296       47.78863       24.78405
H         33.88007       50.15308       24.30650
H         33.41234       48.12210       23.39611
H         31.60928       47.73923       25.87125
H         31.17332       48.56676       24.32992
H         31.55884       46.80907       24.33046
N         35.59123       47.15800       24.79030
C         36.59784       46.17058       25.19151
C         36.80620       46.06678       26.70114
O         37.60979       45.23837       27.10957
C         36.25783       44.76884       24.62161
C         36.00404       44.79064       23.14482
O         34.80933       44.40836       22.65569
O         36.88092       45.14007       22.37940
H         35.91907       47.95801       24.22694
H         37.57291       46.48626       24.75636
H         35.36020       44.35579       25.12403
H         37.09886       44.06976       24.82259
N         36.12641       46.84038       27.59748
C         36.22099       46.64144       29.03394
C         37.57312       46.95179       29.64172
O         37.72221       46.67504       30.82341
H         35.46323       47.54930       27.26947
H         35.96342       45.58070       29.24886
H         35.46887       47.27822       29.54843
N         38.59321       47.53169       28.93927
C         39.90794       47.79072       29.52857
C         40.19524       49.27743       29.61564
O         39.42360       50.07288       29.09657
C         40.98711       47.01895       28.73433
C         41.08195       47.41125       27.27394
N         41.52989       48.63233       26.89453
O         40.76753       46.59734       26.41900
H         38.44265       47.80575       27.95765
H         39.93687       47.41476       30.57395
H         40.71714       45.94049       28.79264
H         41.98598       47.13509       29.20495
H         41.83741       49.32973       27.58523
H         41.59376       48.87663       25.89509
N         41.29659       49.72015       30.29399
C         41.65333       51.12863       30.40708
C         43.04875       51.38891       29.89164
O         43.76006       50.44955       29.56041
H         41.90290       49.02939       30.76231
H         41.60308       51.44614       31.46963
H         40.94731       51.75864       29.82562
N         43.48159       52.67585       29.73784
C         44.77739       53.01777       29.15144
C         44.56488       53.51977       27.72720
O         45.18032       54.48654       27.30475
C         45.54498       54.02674       30.05582
C         44.82642       55.38407       30.23564
O         45.81392       53.45312       31.31109
H         42.81948       53.43548       29.95336
H         45.39847       52.10125       29.05131
H         46.52429       54.23982       29.57537
H         44.95495       53.38373       31.80511
H         45.45347       56.06219       30.85113
H         44.64580       55.88498       29.26314
H         43.85048       55.26708       30.74972
N         43.62232       52.91056       26.95386
C         43.19911       53.37186       25.63540
C         43.04271       52.16005       24.71557
O         43.36951       51.06132       25.14282
C         41.87565       54.18835       25.79830
C         40.70869       53.31991       26.33797
C         42.12767       55.41604       26.70170
C         39.38736       54.07606       26.45269
H         43.08053       52.13987       27.36573
H         43.95150       54.05879       25.18985
H         41.58840       54.58040       24.79977
H         40.95252       52.90662       27.33909
H         40.54151       52.47208       25.64343
H         42.34979       55.10735       27.74568
H         42.98134       56.01177       26.31510
H         41.25072       56.09198       26.72307
H         39.09261       54.49948       25.46919
H         38.60643       53.37194       26.79588
H         39.44818       54.88607       27.20714
N         42.48252       52.26185       23.46848
C         42.15209       51.06497       22.69794
C         42.42246       51.25721       21.20902
O         41.56339       50.94802       20.39573
C         40.68377       50.69145       23.02393
C         40.21864       49.35684       22.50947
O         40.96657       48.61410       21.89454
O         38.95772       48.96254       22.76837
H         42.13458       53.17266       23.13972
H         42.79982       50.22423       23.02968
H         40.01232       51.49139       22.64275
H         40.56955       50.64624       24.12803
N         43.61190       51.76287       20.77753
C         43.97553       51.87289       19.36365
C         42.91244       52.61697       18.54308
O         42.58982       53.74115       18.89989
C         45.31872       52.62727       19.21381
C         45.72317       52.71991       17.75941
C         46.16973       51.58109       17.06824
C         45.61602       53.94149       17.07201
C         46.49092       51.66127       15.70953
C         45.93024       54.01546       15.71215
C         46.36596       52.87627       15.03089
H         44.29522       52.06693       21.48889
H         44.10945       50.84162       18.98438
H         46.13243       52.14195       19.79539
H         45.17646       53.64787       19.63399
H         46.25866       50.63040       17.57937
H         45.26339       54.82998       17.58074
H         46.82789       50.77934       15.18040
H         45.82727       54.95487       15.18472
H         46.60395       52.93479       13.97675
N         42.36575       52.08478       17.39823
C         41.41890       52.77817       16.52979
C         40.19008       53.27784       17.25461
O         39.84830       54.44414       17.11906
C         41.02698       51.71447       15.49362
C         42.30676       50.92913       15.36871
C         42.72410       50.79831       16.82850
H         41.95105       53.61977       16.03070
H         40.27628       51.01068       15.92001
H         40.62310       52.12728       14.54475
H         42.22993       49.96599       14.82157
H         43.04965       51.57816       14.84760
H         42.16528       50.00325       17.36379
H         43.80530       50.57868       16.83199
N         39.49586       52.43901       18.07131
C         38.31519       52.83175       18.83618
C         38.63678       54.03641       19.69772
O         37.95622       55.04478       19.57156
C         37.84731       51.65372       19.71476
C         37.31076       50.48076       18.87436
C         37.20179       49.25818       19.72932
O         37.98469       48.20674       19.43149
O         36.49321       49.23978       20.72364
H         39.86167       51.48075       18.18260
H         37.48676       53.10471       18.14388
H         37.04136       51.97420       20.41133
H         38.71581       51.31699       20.32492
H         38.01813       50.23566       18.05486
H         36.33499       50.74376       18.41225
N         39.69038       54.01600       20.56071
C         40.08531       55.15504       21.36358
H         41.11503       55.45947       21.08002
H         39.41484       56.02849       21.21940
H         40.07353       54.87327       22.43619
H         40.26418       53.16544       20.63360
Ca        38.53576       46.62561       20.91859
O         38.90647       45.31510       18.33799
H         39.10288       45.67679       17.43800
H         39.11390       44.34949       18.27294
O         39.12127       43.54352       21.07415
H         38.53133       42.91011       20.59384
H         39.11586       43.22506       22.01148
O         41.66390       45.90785       20.62297
H         41.49235       45.39371       19.79446
H         42.41497       45.43362       21.06007
O         39.97885       45.46877       23.40408
H         40.14615       46.35766       23.80572
H         39.85358       44.86252       24.17676
O         40.71530       48.17337       18.62906
H         40.48067       48.89756       19.26086
H         40.24435       48.41860       17.79345

Ca 1.0



