%chk=apoCaM-CA-Ng.loop3.water2.frame839.chk
%nprocshared=20
%mem=10GB
%nosave
#b3lyp/svp scf=(tight,noincore,xqc) Test 
#IOP(5/87=12) Density=Current Pop=(MK,readradii) iop(6/33=2) iop(6/42=6)

apoCaM-CA-Ng.loop3.water2.frame839 

   0  1 
C         65.91882       72.25697       76.16700
C         67.00172       71.60365       75.35498
O         67.45473       70.53143       75.72253
H         65.04034       71.57924       76.22139
H         66.28494       72.46665       77.19214
H         65.58488       73.21193       75.70691
N         67.44944       72.19104       74.21352
C         68.41688       71.57123       73.30956
C         69.76458       71.37314       73.98092
O         70.20799       72.28401       74.66717
C         68.59413       72.44380       72.03852
C         68.58988       71.60745       70.79242
O         67.72553       71.81049       69.95391
O         69.44854       70.59226       70.59388
H         67.03208       73.09750       73.95377
H         67.99597       70.59066       73.00502
H         69.48933       73.09670       72.11141
H         67.72379       73.12343       71.91353
N         70.51436       70.25377       73.74973
C         71.85436       70.06951       74.30793
C         72.93468       70.26702       73.24912
O         74.08219       70.44603       73.63575
C         71.93125       68.70458       75.02403
C         73.29534       68.40794       75.67128
C         73.25009       67.09856       76.46728
C         74.62202       66.76641       77.07029
N         74.55638       65.54532       77.87274
H         70.14621       69.53362       73.10987
H         72.04784       70.86336       75.06313
H         71.69722       67.89386       74.29906
H         71.15027       68.70079       75.81595
H         73.57318       69.23831       76.35686
H         74.06984       68.31395       74.88051
H         72.93877       66.26517       75.79975
H         72.50350       67.20090       77.28487
H         74.96382       67.60683       77.71438
H         75.36277       66.62932       76.25053
H         74.23984       64.74110       77.28372
H         75.50654       65.33343       78.25421
H         73.89448       65.67909       78.67169
N         72.65269       70.31914       71.91311
C         73.64450       70.68189       70.90424
C         73.26447       71.96783       70.17532
O         74.11398       72.49603       69.47171
C         73.90444       69.50441       69.94586
C         72.67276       69.03708       69.21968
O         72.09349       69.77630       68.44231
O         72.21477       67.78515       69.41122
H         71.70043       70.11219       71.59195
H         74.61456       70.90767       71.39932
H         74.30049       68.65833       70.54854
H         74.68307       69.78415       69.20316
N         72.03059       72.54491       70.30285
C         71.70439       73.85496       69.77547
C         70.87202       73.84811       68.51635
O         70.61962       74.94855       68.04066
H         71.29946       72.08967       70.85082
H         72.63426       74.40577       69.51955
H         71.19923       74.44277       70.57283
N         70.44672       72.71507       67.86626
C         69.85797       72.82460       66.52427
C         69.14965       71.54564       66.05508
O         69.38041       70.48137       66.60573
C         71.01877       73.22114       65.55898
C         70.62924       73.90426       64.27325
N         71.03393       75.17826       64.03807
O         69.98403       73.31113       63.42519
H         70.59703       71.79257       68.29524
H         69.07842       73.61711       66.58912
H         71.65212       72.33035       65.35374
H         71.68755       73.93395       66.08027
H         71.59620       75.69649       64.73126
H         70.79212       75.65525       63.15826
N         68.24817       71.59511       65.03145
C         67.51461       70.44788       64.50275
C         66.53655       69.87427       65.50544
O         65.75643       70.64271       66.05137
H         68.05408       72.50709       64.59376
H         68.21637       69.67621       64.12059
H         66.90690       70.80425       63.64202
N         66.46686       68.52603       65.74990
C         65.51226       67.94253       66.70086
C         66.01277       68.11602       68.15598
O         66.41550       69.43152       68.32149
C         65.26262       66.44532       66.41166
C         64.51774       66.21170       65.11625
C         63.22308       66.73699       64.94029
C         65.08334       65.43714       64.09038
C         62.51186       66.49432       63.76245
C         64.36741       65.19318       62.91221
C         63.08114       65.71827       62.74435
O         62.40104       65.46625       61.60737
H         67.06663       67.89581       65.19635
H         64.54261       68.47799       66.60324
H         64.62566       66.01063       67.21170
H         66.23422       65.90409       66.42890
H         62.75499       67.32673       65.71817
H         66.07272       65.01312       64.20425
H         61.51568       66.90363       63.64645
H         64.81018       64.58866       62.13087
H         61.50539       65.80233       61.45803
N         64.97049       67.71860       69.14714
C         65.09034       68.15844       70.56769
C         66.36245       67.60779       71.20300
O         67.42857       67.79687       70.65019
C         64.90559       69.70630       70.77628
C         64.96880       70.14160       72.26484
C         63.60350       70.21960       70.12658
C         63.85716       69.61101       73.17162
H         64.00852       67.92115       68.79307
H         64.23795       67.69354       71.10717
H         65.74061       70.25031       70.31034
H         64.93540       71.25361       72.30673
H         65.93836       69.82521       72.69156
H         63.48622       71.31025       70.29854
H         63.61626       70.07267       69.02749
H         62.71660       69.69320       70.53841
H         63.86498       68.50713       73.22254
H         64.01962       70.00076       74.19889
H         62.86083       69.95450       72.82914
N         66.33243       66.94848       72.39879
C         67.53142       66.38246       73.02318
C         67.34463       64.94499       73.50895
O         68.32951       64.34868       73.92420
C         67.94942       67.25919       74.20802
O         66.95604       67.22435       75.20023
H         65.44158       66.91737       72.90996
H         68.37129       66.38394       72.29380
H         68.11872       68.29560       73.83499
H         68.90757       66.89850       74.64168
H         66.79343       68.15556       75.49250
N         66.11848       64.34575       73.56875
C         65.90843       63.01907       74.14463
C         66.50561       61.93035       73.26750
O         66.85786       62.23195       72.13499
C         64.39996       62.79255       74.28430
H         65.28661       64.86458       73.26344
H         66.37378       62.99997       75.15384
H         64.17687       61.80195       74.68559
H         63.96543       63.55747       74.96390
H         63.90197       62.86742       73.29432
N         66.65908       60.62921       73.66585
C         66.50683       60.10332       75.02681
C         66.25579       58.59768       74.96768
O         67.01540       57.92667       74.28125
C         67.80726       60.34902       75.79950
H         67.09395       60.00151       72.97073
H         65.71435       60.61831       75.58864
H         68.66647       59.85506       75.29681
H         68.01978       61.43575       75.86927
H         67.71712       59.94694       76.83210
N         65.27830       57.93821       75.66093
C         64.35440       58.51016       76.63734
C         63.36246       59.45664       75.99933
O         63.23678       60.57789       76.47123
C         63.60483       57.36808       77.36619
C         62.72230       57.87752       78.51713
C         62.09603       56.73289       79.26075
O         62.36464       56.55184       80.56821
O         61.33890       55.96503       78.68852
H         65.24786       56.91318       75.53251
H         64.94645       59.04389       77.41497
H         64.36542       56.68117       77.80065
H         62.98820       56.78849       76.64350
H         61.91718       58.53652       78.12792
H         63.34921       58.46400       79.22371
N         62.59847       59.06453       74.94341
C         61.63278       59.94624       74.32286
H         60.86410       60.25135       75.06402
H         62.13854       60.84972       73.92397
H         61.13149       59.42681       73.47929
H         62.70918       58.11339       74.56133
Ca        68.60343       69.36342       68.94145
O         69.74253       67.08767       66.75895
H         69.38484       67.19826       65.84275
H         69.72615       66.10975       66.91274
O         69.17522       65.84671       69.56836
H         68.25378       65.57602       69.32582
H         69.60052       65.01608       69.89727

Ca 1.0



