%chk=apoCaM-CA-Ng.loop1.water3.frame1256.chk
%nprocshared=20
%mem=10GB
%nosave
#b3lyp/svp scf=(tight,noincore,xqc) Test 
#IOP(5/87=12) Density=Current Pop=(MK,readradii) iop(6/33=2) iop(6/42=6)

apoCaM-CA-Ng.loop1.water3.frame1256 

   0  1 
C         15.21479       43.08741      122.36370
C         16.11179       44.04245      123.09220
O         16.24902       45.17006      122.63888
H         14.18780       43.50450      122.31448
H         15.59783       42.94334      121.33055
H         15.17897       42.09862      122.86596
N         16.78268       43.65167      124.21576
C         17.72608       44.51893      124.91468
C         19.12845       43.97091      124.75224
O         19.86062       43.81151      125.71981
C         17.29732       44.75093      126.38268
C         17.25025       43.52240      127.26204
O         17.55261       42.41715      126.84038
O         16.87604       43.65375      128.54839
H         16.65767       42.68587      124.55163
H         17.74672       45.51772      124.43134
H         16.28605       45.21120      126.37819
H         18.00007       45.47681      126.84662
N         19.56107       43.66488      123.50030
C         20.90485       43.19868      123.19796
C         21.91129       44.29994      123.51927
O         22.80404       44.01991      124.30684
C         20.99080       42.66631      121.74348
C         20.07343       41.43372      121.57885
C         19.99433       40.94135      120.13125
C         19.07123       39.71464      120.03688
N         18.89928       39.28572      118.65015
H         18.89390       43.77434      122.72192
H         21.13804       42.31782      123.84085
H         22.03468       42.35810      121.51566
H         20.70148       43.44236      121.01057
H         19.03824       41.68351      121.89376
H         20.44577       40.61604      122.23551
H         21.00718       40.67613      119.75850
H         19.58017       41.75888      119.50121
H         18.07166       39.96249      120.46031
H         19.50344       38.87986      120.63319
H         18.28286       38.44103      118.62860
H         18.44314       40.04740      118.09683
H         19.82429       39.04419      118.22732
N         21.84603       45.58745      123.05083
C         20.84152       46.13707      122.13899
C         19.92792       47.12826      122.84905
O         20.14874       47.43705      124.01093
C         21.53457       46.73009      120.89761
C         22.53873       47.79415      121.24762
O         22.14930       48.93208      121.85193
O         23.71925       47.62081      120.99260
H         22.55942       46.24444      123.40489
H         20.16666       45.35105      121.78118
H         20.78563       47.15071      120.19410
H         22.06096       45.90045      120.37445
N         18.79732       47.57346      122.22541
C         17.76149       48.33297      122.91141
C         18.07640       49.79379      123.11314
O         19.09554       50.27811      122.64112
H         18.59222       47.23439      121.27349
H         17.54335       47.84848      123.88717
H         16.82967       48.29922      122.30707
N         17.20488       50.55699      123.83630
C         17.34603       51.99473      124.07062
C         16.00711       52.70844      123.82946
O         15.00367       52.02083      123.68218
C         17.86149       52.18503      125.51788
C         19.24078       51.60442      125.60131
O         19.48041       50.66423      126.34052
O         20.19199       52.08055      124.77382
H         16.41574       50.07199      124.29451
H         18.08854       52.41374      123.35964
H         17.17211       51.68785      126.23621
H         17.94232       53.23775      125.82126
N         15.85906       54.06897      123.76491
C         16.94015       55.04279      123.80613
C         17.81858       54.96756      122.58237
O         17.47016       54.30347      121.61892
H         14.90549       54.44715      123.65384
H         17.53250       54.92789      124.72344
H         16.52304       56.07210      123.84136
N         19.00813       55.63152      122.57607
C         19.93758       55.62405      121.44927
C         20.24580       54.20314      120.99725
O         20.57520       53.36426      121.82214
C         21.22670       56.40219      121.81714
C         22.22910       56.44601      120.65584
O         21.83361       55.82600      122.94342
H         19.27111       56.14679      123.43015
H         19.46487       56.16734      120.60146
H         20.91668       57.44755      122.05505
H         22.40509       56.52696      123.35390
H         22.58596       55.42526      120.39975
H         21.76098       56.90137      119.75778
H         23.11089       57.05681      120.94293
N         20.16446       53.89823      119.66660
C         20.40913       52.59790      119.04820
C         21.79995       52.07771      119.36626
O         22.06454       51.69652      120.49768
C         19.28926       51.56743      119.37715
C         17.92255       52.12153      118.89196
C         19.59422       50.20302      118.71760
C         16.72769       51.22050      119.20674
H         19.92784       54.66237      119.01532
H         20.35730       52.75671      117.94703
H         19.25022       51.42046      120.47317
H         17.95401       52.29660      117.79399
H         17.73260       53.09638      119.38402
H         19.63759       50.30396      117.61187
H         20.56211       49.79374      119.07433
H         18.83137       49.44498      118.98404
H         16.66081       51.03098      120.29857
H         15.79571       51.72376      118.87244
H         16.79269       50.25702      118.66215
N         22.73125       51.99930      118.37605
C         24.05234       51.41977      118.56633
C         25.16134       52.44325      118.41899
O         26.30270       52.04717      118.61219
C         24.25287       50.21064      117.61652
C         24.16416       50.57307      116.12994
O         23.28905       49.22813      117.89181
H         22.48750       52.35723      117.44172
H         24.15624       51.03019      119.60422
H         25.27281       49.78658      117.78120
H         23.63185       48.69811      118.65650
H         24.91272       51.34920      115.86749
H         24.36417       49.66899      115.51705
H         23.15058       50.93715      115.86417
N         24.93790       53.76491      118.12496
C         26.03579       54.73177      118.12351
C         26.59673       54.79269      119.53272
O         25.93632       55.30498      120.42617
C         25.60520       56.13132      117.62471
C         25.20543       56.10039      116.14576
O         24.53328       56.61155      118.39577
H         23.98131       54.09455      117.93429
H         26.82010       54.35990      117.42587
H         26.48680       56.80876      117.72574
H         24.57813       57.60282      118.37370
H         24.34005       55.42655      115.97634
H         24.93017       57.12226      115.80929
H         26.06030       55.75036      115.52795
N         27.75934       54.13700      119.80894
C         28.28932       53.86999      121.14111
C         27.31537       53.06828      121.99627
O         26.12052       53.06211      121.74113
C         28.75827       55.13576      121.88005
C         29.82059       55.89664      121.07669
C         30.38842       57.07018      121.88685
C         31.39169       57.92308      121.09093
N         32.56410       57.16074      120.65572
H         28.27043       53.70252      119.02510
H         29.18295       53.22143      120.99255
H         29.20272       54.82293      122.85133
H         27.89823       55.80654      122.09411
H         29.36567       56.27554      120.13569
H         30.64391       55.19503      120.82604
H         30.88162       56.68059      122.80498
H         29.55238       57.73409      122.19746
H         31.72814       58.75675      121.74652
H         30.88630       58.36680      120.20501
H         33.03149       56.71142      121.47617
H         32.29459       56.43570      119.95361
H         33.23985       57.81367      120.19728
N         27.79124       52.31834      123.02534
C         26.93807       51.54223      123.92222
C         25.97984       50.62428      123.16394
O         24.78824       50.75947      123.39708
C         27.77521       50.74870      124.95206
C         28.57392       51.67497      125.88718
C         29.42669       50.88058      126.83174
O         30.30888       50.15530      126.39935
O         29.24055       50.98254      128.16103
H         28.81262       52.29197      123.15889
H         26.30669       52.25358      124.50387
H         28.46647       50.05592      124.43207
H         27.09096       50.13751      125.58214
H         27.86364       52.30725      126.46365
H         29.24654       52.34584      125.31586
N         26.34393       49.68682      122.24158
C         27.68348       49.40929      121.77431
H         28.45336       50.04835      122.23279
H         27.92760       48.34738      121.98347
H         27.71897       49.57408      120.67670
H         25.59303       49.13110      121.80679
Ca        22.05948       50.92561      124.29433
O         23.66228       53.53370      123.25186
H         22.78966       53.52581      123.71867
H         23.43077       53.58775      122.29049
O         22.19648       48.48218      126.05192
H         22.47061       48.33140      125.11228
H         21.25310       48.77538      125.99105
O         23.41987       52.22661      126.51707
H         22.77184       51.54704      126.83242
H         24.30251       51.87355      126.79266

Ca 1.0



