%chk=apoCaM-CA-Ng.loop2.water5.frame738.chk
%nprocshared=20
%mem=10GB
%nosave
#b3lyp/svp scf=(tight,noincore,xqc) Test 
#IOP(5/87=12) Density=Current Pop=(MK,readradii) iop(6/33=2) iop(6/42=6)

apoCaM-CA-Ng.loop2.water5.frame738 

   -2  1 
C         -1.10192       24.69880      -10.65189
C         -0.59801       25.55076      -11.77869
O         -1.36753       26.35022      -12.29202
H         -1.96504       24.09451      -11.00202
H         -0.31465       24.01283      -10.27662
H         -1.43320       25.35100       -9.81588
N          0.68843       25.43954      -12.22295
C          1.21449       26.26205      -13.30722
C          1.15026       27.72066      -12.90475
O          1.80145       28.10080      -11.93962
C          2.66326       25.85471      -13.64454
C          3.22739       26.66246      -14.78075
O          2.69824       26.63347      -15.88045
O          4.32458       27.41959      -14.58925
H          1.30671       24.74465      -11.77626
H          0.58776       26.08269      -14.20986
H          2.68622       24.78073      -13.92961
H          3.30479       25.98668      -12.74518
N          0.32581       28.57724      -13.57027
C          0.11645       29.95897      -13.16197
C         -1.29502       30.09608      -12.60525
O         -2.09965       29.20324      -12.84419
C          0.33562       30.87916      -14.36645
H         -0.24166       28.21241      -14.35228
H          0.84715       30.22428      -12.37902
H          0.20378       31.94510      -14.10617
H          1.36576       30.74678      -14.75831
H         -0.38663       30.62891      -15.17367
N         -1.71846       31.13764      -11.83420
C         -0.90469       32.25600      -11.34938
C          0.22569       31.81140      -10.42138
O          0.30895       30.64876      -10.05344
C         -1.81758       33.26089      -10.59424
C         -2.56447       32.59489       -9.45813
O         -1.88670       31.95691       -8.47997
O         -3.78375       32.58474       -9.45979
H         -2.71361       31.11338      -11.56105
H         -0.46067       32.78647      -12.21252
H         -2.55346       33.68220      -11.31549
H         -1.22554       34.11378      -10.20156
N          1.11352       32.73936       -9.96353
C          2.15210       32.45489       -8.98921
C          3.27400       31.57601       -9.50309
O          3.22738       31.14558      -10.64726
H          1.01367       33.71792      -10.27134
H          1.69223       31.99683       -8.09169
H          2.61546       33.42450       -8.70132
N          4.37657       31.31018       -8.73612
C          4.56428       31.81351       -7.37393
C          5.14108       30.72416       -6.48260
O          6.12327       30.10685       -6.87366
C          5.48342       33.05308       -7.40486
C          5.35698       33.91954       -6.16438
N          6.05217       35.07531       -6.07575
O          4.59714       33.61156       -5.25670
H          5.15725       30.79844       -9.17788
H          3.59713       32.15607       -6.96094
H          5.16815       33.70050       -8.25146
H          6.53964       32.75206       -7.57974
H          6.68994       35.36528       -6.83048
H          5.93981       35.68876       -5.25440
N          4.61383       30.45162       -5.25460
C          5.15141       29.38169       -4.42416
C          4.52491       29.34745       -3.04762
O          5.26031       29.35131       -2.07279
H          3.82851       31.02265       -4.90788
H          6.25119       29.51083       -4.30725
H          4.96518       28.41193       -4.93365
N          3.17342       29.26427       -2.90313
C          2.46159       29.21011       -1.61468
C          1.00490       28.77807       -1.81640
O          0.57474       28.59297       -2.94743
C          2.46829       30.58217       -0.85875
C          3.79845       30.98874       -0.22294
O          2.03035       31.61525       -1.70364
H          2.63607       29.19862       -3.78009
H          2.91360       28.41573       -0.98038
H          1.79523       30.51167        0.02400
H          1.04372       31.53886       -1.77257
H          4.17182       30.17436        0.43658
H          4.55806       31.26526       -0.97454
H          3.64358       31.89154        0.40597
N          0.18269       28.58426       -0.73932
C         -1.20684       28.16487       -0.86837
C         -2.13157       29.25577       -0.33868
O         -2.10184       29.55736        0.84604
C         -1.44647       26.80582       -0.14011
C         -2.93594       26.37248       -0.25412
C         -0.51561       25.72239       -0.72116
C         -3.28096       25.09891        0.51926
H          0.54985       28.72513        0.21335
H         -1.44443       27.99790       -1.93458
H         -1.19959       26.93850        0.93661
H         -3.21262       26.22996       -1.32104
H         -3.57848       27.17120        0.17068
H          0.54792       26.02534       -0.63150
H         -0.61519       24.76807       -0.16670
H         -0.74680       25.54227       -1.79348
H         -2.74982       24.21645        0.11192
H         -3.03305       25.22454        1.59414
H         -4.36892       24.89697        0.43063
N         -3.02907       29.83741       -1.18409
C         -4.09137       30.75317       -0.80222
C         -5.47267       30.11204       -0.99865
O         -6.45383       30.78370       -0.71068
C         -3.96684       32.09805       -1.55977
C         -3.91890       31.98006       -3.06068
O         -2.83159       31.46185       -3.66269
O         -4.82473       32.42951       -3.74343
H         -2.99935       29.57751       -2.16761
H         -4.02697       30.98975        0.28222
H         -3.04447       32.62593       -1.23750
H         -4.82965       32.73675       -1.26868
N         -5.63433       28.80371       -1.38165
C         -6.92443       28.11703       -1.35813
C         -7.20294       27.36301       -2.66351
O         -7.41673       26.16002       -2.60707
C         -6.88712       27.19026       -0.11364
C         -8.13672       26.39344        0.18736
C         -9.37163       27.03002        0.39727
C         -8.05967       24.99255        0.30974
C        -10.50650       26.27732        0.72201
C         -9.19411       24.24639        0.64065
C        -10.41685       24.88799        0.84707
H         -4.81048       28.22032       -1.56766
H         -7.75283       28.84242       -1.21357
H         -6.68875       27.82742        0.77538
H         -6.02438       26.49920       -0.22257
H         -9.45657       28.10566        0.31816
H         -7.11847       24.47603        0.16572
H        -11.45522       26.77144        0.88572
H         -9.12282       23.17088        0.74460
H        -11.29312       24.30842        1.10849
N         -7.26959       27.98452       -3.88382
C         -7.67715       27.30716       -5.11086
C         -6.61110       26.39323       -5.70037
O         -6.89183       25.77275       -6.71672
C         -8.02935       28.46605       -6.04801
C         -7.02560       29.51628       -5.63156
C         -7.05049       29.39802       -4.10898
H         -8.59794       26.70316       -4.94952
H         -8.05643       28.21841       -7.13161
H         -9.03084       28.85741       -5.75717
H         -6.02900       29.17906       -5.99935
H         -7.22551       30.53870       -6.00906
H         -6.07854       29.76080       -3.71858
H         -7.89412       29.96192       -3.65583
N         -5.37984       26.24167       -5.13338
C         -4.39822       25.29540       -5.65685
C         -4.79716       23.86674       -5.27859
O         -4.15712       22.93873       -5.75333
C         -2.96081       25.55379       -5.12980
C         -2.34172       26.94757       -5.42594
C         -3.02405       28.02476       -4.64386
O         -3.38477       29.23238       -5.13730
O         -3.26437       27.78948       -3.47728
H         -5.16701       26.77076       -4.28767
H         -4.35774       25.40687       -6.76293
H         -2.28786       24.80080       -5.59539
H         -2.93364       25.36985       -4.03064
H         -2.30807       27.17810       -6.50754
H         -1.29717       26.90239       -5.04521
N         -5.81312       23.61615       -4.39529
C         -6.21417       22.29365       -3.96666
H         -7.28611       22.14154       -4.21295
H         -5.61794       21.49169       -4.44612
H         -6.09261       22.21745       -2.86448
H         -6.33407       24.38962       -3.96728
Ca        -2.75576       30.59824       -6.85862
O          0.12632       30.24412       -5.56105
H          0.60522       29.87590       -6.34535
H         -0.48019       29.51533       -5.27735
O         -2.03422       28.57661       -8.88045
H         -1.37398       28.60070       -8.14285
H         -1.96113       29.46807       -9.30288
O         -0.30251       33.34734       -6.15638
H          0.28106       34.12887       -6.32295
H         -0.11021       32.73762       -6.90971
O         -3.50731       34.15862       -5.79099
H         -4.24904       34.35177       -6.41765
H         -3.18224       35.05001       -5.50822
O         -5.34097       31.75814       -7.22954
H         -5.49950       31.23733       -8.05701
H         -6.05160       32.44618       -7.22570

Ca 1.0



