%chk=apoCaM-CA-Ng.loop3.water3.frame665.chk
%nprocshared=20
%mem=10GB
%nosave
#b3lyp/svp scf=(tight,noincore,xqc) Test 
#IOP(5/87=12) Density=Current Pop=(MK,readradii) iop(6/33=2) iop(6/42=6)

apoCaM-CA-Ng.loop3.water3.frame665 

   0  1 
C        -18.59921       69.15991       -3.68064
C        -19.05213       70.58696       -3.78190
O        -20.09818       70.83367       -4.36395
H        -17.64568       69.07520       -3.11766
H        -19.37207       68.56779       -3.14574
H        -18.45304       68.73763       -4.69586
N        -18.32361       71.58525       -3.20986
C        -18.75996       72.97501       -3.20150
C        -18.81610       73.54124       -4.61483
O        -17.82806       73.42109       -5.32656
C        -17.82647       73.83047       -2.30982
C        -18.47718       75.13732       -1.94308
O        -17.83437       76.01426       -1.39322
O        -19.80124       75.29253       -2.13229
H        -17.45414       71.33570       -2.71296
H        -19.76234       72.99988       -2.74546
H        -16.86560       73.99629       -2.84520
H        -17.60139       73.31603       -1.35166
N        -19.92223       74.20214       -5.07776
C        -20.01370       74.72481       -6.44167
C        -19.63969       76.19847       -6.54810
O        -19.47638       76.64412       -7.67634
C        -21.41210       74.46642       -7.03940
C        -21.71749       72.97098       -7.19605
C        -23.13102       72.75865       -7.75727
C        -23.39728       71.27349       -8.03645
N        -24.75354       71.06992       -8.54556
H        -20.71261       74.36607       -4.43585
H        -19.26430       74.20506       -7.07999
H        -21.47269       74.92975       -8.04928
H        -22.17795       74.94660       -6.39608
H        -21.63696       72.45390       -6.21562
H        -20.97143       72.53395       -7.89538
H        -23.24521       73.32284       -8.70894
H        -23.87489       73.14245       -7.02435
H        -23.26366       70.68346       -7.10300
H        -22.66540       70.90877       -8.79186
H        -24.89048       70.05542       -8.75839
H        -25.45384       71.36191       -7.82552
H        -24.89892       71.62094       -9.42290
N        -19.43741       77.00645       -5.46179
C        -18.87733       78.35778       -5.57883
C        -17.55827       78.47430       -4.81150
O        -16.94018       79.52395       -4.88116
C        -19.92281       79.44572       -5.20747
C        -20.13798       79.69193       -3.73769
O        -19.28789       80.27478       -3.08856
O        -21.25682       79.27963       -3.12323
H        -19.64439       76.64174       -4.52539
H        -18.63566       78.55587       -6.64566
H        -20.88091       79.17363       -5.70142
H        -19.60939       80.42339       -5.63590
N        -17.03807       77.42072       -4.10666
C        -15.76125       77.44041       -3.41177
C        -15.73616       78.17656       -2.08082
O        -14.67730       78.15246       -1.46966
H        -17.51075       76.50911       -4.12617
H        -14.97358       77.82719       -4.09331
H        -15.49325       76.38795       -3.16721
N        -16.81562       78.83115       -1.54733
C        -16.76264       79.50471       -0.24416
C        -17.90069       79.07450        0.68008
O        -18.86060       78.45886        0.23984
C        -16.84941       81.04568       -0.39193
C        -15.76395       81.65067       -1.24631
N        -15.75779       81.46867       -2.58421
O        -14.90707       82.35178       -0.72975
H        -17.69072       78.86256       -2.07835
H        -15.80236       79.26699        0.26346
H        -16.76367       81.49059        0.62358
H        -17.83641       81.34839       -0.80523
H        -16.50659       80.93084       -3.03166
H        -15.03091       81.89753       -3.17530
N        -17.85658       79.44650        1.99310
C        -18.94973       79.33193        2.94838
C        -19.49898       77.93697        3.13665
O        -18.74109       77.01895        3.41488
H        -17.00176       79.91084        2.33650
H        -19.76503       80.01998        2.64075
H        -18.58050       79.68816        3.93494
N        -20.85125       77.73461        3.07412
C        -21.49302       76.44350        3.31011
C        -21.15980       75.44494        2.21511
O        -20.46291       75.79833        1.27121
C        -23.03808       76.60470        3.35476
C        -23.55489       77.46758        4.48143
C        -23.29107       77.13077        5.82085
C        -24.35662       78.58798        4.20364
C        -23.82112       77.90018        6.86146
C        -24.89003       79.35239        5.24611
C        -24.62746       79.01143        6.57681
O        -25.16056       79.75152        7.57004
H        -21.45481       78.55190        2.89768
H        -21.14461       76.03627        4.28472
H        -23.52000       75.61712        3.49887
H        -23.38401       76.99767        2.37215
H        -22.68642       76.26635        6.06323
H        -24.58634       78.86078        3.18128
H        -23.61357       77.62529        7.88817
H        -25.51763       80.20499        5.01876
H        -25.01610       79.54125        8.50368
N        -21.66470       74.17503        2.27474
C        -21.51321       73.14545        1.24981
C        -22.19731       73.57958       -0.04514
O        -21.87573       74.63044       -0.56771
C        -20.02093       72.75886        1.01656
C        -19.86102       71.61075       -0.01904
C        -19.32089       72.39248        2.33807
C        -20.48323       70.26367        0.36214
H        -22.21375       73.90521        3.10664
H        -22.02414       72.23413        1.62411
H        -19.48325       73.63652        0.59804
H        -18.77870       71.44493       -0.20715
H        -20.32571       71.91915       -0.97069
H        -19.33577       73.25153        3.04030
H        -19.82021       71.53437        2.83340
H        -18.25783       72.13266        2.14790
H        -20.30474       69.54071       -0.46199
H        -20.02171       69.85398        1.28230
H        -21.57838       70.34570        0.50077
N        -23.10595       72.76446       -0.65969
C        -23.66566       73.07348       -1.97778
C        -25.17123       72.89332       -2.06284
O        -25.69245       73.08585       -3.15844
C        -22.97520       72.18307       -3.01777
O        -23.21684       70.83074       -2.74486
H        -23.30738       71.84417       -0.24624
H        -23.44420       74.12427       -2.25933
H        -21.88825       72.38820       -2.97685
H        -23.34245       72.43587       -4.03877
H        -22.64003       70.31847       -3.37070
N        -25.94916       72.51532       -1.00846
C        -27.37945       72.25908       -1.16929
C        -28.12032       73.49852       -1.65303
O        -27.59765       74.59093       -1.48601
C        -27.99440       71.77583        0.14502
H        -25.51882       72.36615       -0.08136
H        -27.46457       71.45719       -1.93405
H        -29.07551       71.58329        0.01659
H        -27.49800       70.83943        0.47751
H        -27.87429       72.54770        0.93499
N        -29.31150       73.44556       -2.32215
C        -30.05559       72.23907       -2.67812
C        -31.50848       72.36434       -2.23688
O        -32.03686       73.46626       -2.30103
C        -30.00903       72.07245       -4.20041
H        -29.69394       74.34361       -2.66167
H        -29.60260       71.32804       -2.25331
H        -30.56220       71.16222       -4.51554
H        -30.45608       72.95278       -4.71053
H        -28.95434       71.96648       -4.53444
N        -32.28922       71.29675       -1.89595
C        -31.84490       69.90896       -1.85943
C        -31.02882       69.65928       -0.60603
O        -29.89567       69.20960       -0.70622
C        -33.06916       68.96707       -1.92499
C        -32.66570       67.50971       -2.20880
C        -33.85649       66.60134       -2.36983
O        -35.11469       67.06452       -2.22690
O        -33.68119       65.42583       -2.64685
H        -33.28888       71.48666       -1.71750
H        -31.25741       69.69740       -2.77899
H        -33.70598       69.29662       -2.77604
H        -33.67280       69.03821       -0.99342
H        -32.02273       67.12191       -1.39096
H        -32.08902       67.48140       -3.16004
N        -31.55246       69.94637        0.61987
C        -30.81941       69.74859        1.85229
H        -29.89147       70.35584        1.85242
H        -31.44056       70.07010        2.71600
H        -30.56104       68.67677        1.97673
H        -32.50549       70.33543        0.68432
Ca       -20.93226       77.18655       -2.45579
O        -21.81465       79.37318        0.17264
H        -22.64961       79.37211        0.70489
H        -21.27739       80.11153        0.55521
O        -23.84488       77.47502       -1.20973
H        -24.22014       78.18489       -1.78951
H        -24.53620       76.76647       -1.20282
O        -23.04408       76.06183       -3.99061
H        -23.68664       75.53602       -4.52836
H        -22.52609       76.58601       -4.65214

Ca 1.0



