%chk=apoCaM-CA-Ng.loop2.water5.frame1042.chk
%nprocshared=20
%mem=10GB
%nosave
#b3lyp/svp scf=(tight,noincore,xqc) Test 
#IOP(5/87=12) Density=Current Pop=(MK,readradii) iop(6/33=2) iop(6/42=6)

apoCaM-CA-Ng.loop2.water5.frame1042 

   -2  1 
C         19.81877       55.88861       61.93533
C         19.96075       57.38179       62.12735
O         19.92051       58.06880       61.11735
H         18.84942       55.68458       61.43373
H         20.63734       55.52843       61.27801
H         19.83686       55.26923       62.84439
N         20.11731       58.01096       63.33290
C         20.20280       57.37636       64.64550
C         21.55465       57.69782       65.27917
O         22.53098       57.73275       64.54295
C         18.94978       57.76127       65.46708
C         18.79596       59.24764       65.66090
O         19.71130       59.94678       66.35527
O         17.82992       59.82708       65.19062
H         20.18069       59.04135       63.31667
H         20.18508       56.28031       64.57206
H         18.94282       57.25132       66.45173
H         18.06146       57.38607       64.91103
N         21.71396       57.88030       66.62665
C         22.99605       58.15528       67.26784
C         23.55264       59.48630       66.79331
O         24.62850       59.54220       66.21384
C         23.96949       56.97828       67.09616
H         20.90021       57.81409       67.25160
H         22.82816       58.24943       68.36468
H         24.24021       56.80335       66.03645
H         24.90233       57.17817       67.66574
H         23.50864       56.05325       67.50473
N         22.85122       60.62009       67.06746
C         23.28412       61.96911       66.70818
C         22.42878       62.99030       67.44035
O         21.21626       62.83638       67.47981
C         23.30066       62.20259       65.17702
C         21.97147       62.03774       64.48966
O         21.83629       61.19230       63.62010
O         20.94547       62.86028       64.77433
H         21.98114       60.50738       67.61012
H         24.32936       62.11195       67.06089
H         24.02801       61.50015       64.71750
H         23.67114       63.23161       64.97462
N         23.00233       64.06411       68.05511
C         22.23742       65.02252       68.83872
C         22.02779       66.33777       68.12494
O         21.34415       67.18385       68.68416
H         24.01598       64.22368       67.94994
H         22.74218       65.17574       69.81595
H         21.22307       64.62568       69.05636
N         22.53076       66.57467       66.87972
C         22.22162       67.76905       66.10025
C         21.58753       67.35628       64.78766
O         21.46198       66.16382       64.52872
C         23.51337       68.55924       65.83020
C         24.14369       69.03033       67.11406
N         25.38554       68.62377       67.46353
O         23.52687       69.79112       67.84527
H         23.13449       65.86947       66.43109
H         21.50045       68.42575       66.63623
H         23.29801       69.45457       65.20919
H         24.21977       67.91321       65.26341
H         25.92104       67.98173       66.86132
H         25.81319       68.95063       68.34218
N         21.17125       68.28863       63.88794
C         20.65560       67.86683       62.59966
C         20.20719       68.99443       61.69466
O         20.25254       70.15080       62.09089
H         21.24915       69.28950       64.12283
H         19.78237       67.19965       62.76726
H         21.46524       67.30522       62.08568
N         19.72282       68.74375       60.44292
C         19.64154       67.40848       59.84792
C         20.39667       67.33465       58.53689
O         20.79473       68.35421       57.99037
C         18.16163       67.00133       59.63809
C         17.47601       66.73824       60.98002
O         17.45072       68.00219       58.95273
H         19.38592       69.54355       59.88347
H         20.11236       66.64427       60.49388
H         18.09959       66.04427       59.07182
H         17.84255       68.07659       58.04464
H         17.99964       65.91749       61.51756
H         17.47902       67.64791       61.61613
H         16.42517       66.42233       60.81139
N         20.62811       66.10780       57.98470
C         21.23674       65.89642       56.68024
C         20.23039       65.07585       55.87532
O         20.06198       63.90377       56.18167
C         22.60850       65.17717       56.82381
C         23.57498       66.04927       57.66853
C         23.21296       64.87493       55.43658
C         24.86916       65.33134       58.05393
H         20.33318       65.27078       58.51160
H         21.44116       66.87107       56.19552
H         22.44056       64.21532       57.35768
H         23.08600       66.32875       58.62525
H         23.81064       66.98793       57.12081
H         24.16653       64.31811       55.52255
H         22.52975       64.23498       54.84051
H         23.39617       65.81664       54.87553
H         24.63446       64.42078       58.64432
H         25.47035       65.04769       57.16878
H         25.48658       66.00500       58.68367
N         19.43518       65.61629       54.90690
C         19.45266       67.02960       54.55648
C         20.66303       67.31014       53.66345
O         21.20933       66.37456       53.09204
C         18.10932       67.40221       53.87802
C         17.75378       68.86915       53.85346
O         18.50487       69.79542       54.47546
O         16.70665       69.21521       53.33140
H         18.71793       65.00484       54.48356
H         19.48756       67.60126       55.50933
H         17.28555       66.92881       54.45835
H         18.08869       66.97793       52.85116
N         21.15975       68.56747       53.52431
C         22.28994       68.91357       52.66155
C         22.60640       70.39290       52.86121
O         21.67902       71.18701       52.74284
C         21.94221       68.67892       51.17029
C         23.15457       68.89581       50.29366
C         23.25315       70.03239       49.47415
C         24.20580       67.95971       50.29789
C         24.38957       70.23542       48.68403
C         25.33467       68.16110       49.49719
C         25.42818       69.30031       48.69401
H         20.73117       69.31075       54.08777
H         23.15670       68.27596       52.93564
H         21.11996       69.37403       50.89093
H         21.56997       67.65135       50.97739
H         22.46060       70.76949       49.46033
H         24.14918       67.07329       50.91785
H         24.46634       71.11966       48.06481
H         26.13854       67.43577       49.50139
H         26.30536       69.45869       48.07958
N         23.85044       70.87804       53.15051
C         25.09474       70.12118       53.16232
C         25.26617       69.27954       54.41118
O         24.36228       69.19885       55.22949
C         26.15509       71.22606       53.03529
C         25.53799       72.35247       53.82966
C         24.09159       72.29260       53.35798
H         25.19733       69.46598       52.27549
H         27.19092       70.94774       53.31969
H         26.17515       71.56248       51.97185
H         25.57753       72.06041       54.90374
H         26.01468       73.34796       53.70993
H         23.43055       72.73367       54.13618
H         23.94495       72.81785       52.38808
N         26.43668       68.59929       54.58742
C         26.72349       67.71805       55.71545
C         28.07444       67.02215       55.50585
O         28.96304       67.17619       56.33186
C         26.65260       68.48296       57.06792
C         27.52401       69.74996       57.12948
C         27.39579       70.40278       58.47609
O         26.95287       71.53615       58.57140
O         27.77433       69.74061       59.58664
H         27.15929       68.69749       53.85763
H         25.96035       66.91326       55.75161
H         26.93805       67.78430       57.88437
H         25.60466       68.78748       57.26545
H         27.19567       70.46128       56.34074
H         28.59334       69.51524       56.95991
N         28.33302       66.21695       54.43271
C         27.39320       65.88283       53.37987
H         26.39113       66.32735       53.52279
H         27.79740       66.22884       52.40529
H         27.26785       64.78089       53.34250
H         29.27236       65.79578       54.35706
Ca        18.48543       62.59932       66.45599
O         19.24957       65.38472       67.11988
H         18.77031       65.73992       66.33023
H         18.68805       65.64326       67.89322
O         17.76994       62.96353       63.54842
H         18.50081       63.38508       63.03044
H         17.04761       63.64060       63.55606
O         16.45565       60.78174       67.77159
H         15.56353       61.20759       67.72027
H         16.67903       60.78532       68.73590
O         16.02684       64.20305       66.46200
H         15.64664       63.31929       66.22762
H         15.80746       64.78014       65.68839
O         18.41970       62.97984       69.46937
H         17.66757       63.57389       69.71795
H         19.12659       63.17941       70.13294

Ca 1.0



