%chk=apoCaM-CA-Ng.loop4.water3.frame273.chk
%nprocshared=20
%mem=10GB
%nosave
#b3lyp/svp scf=(tight,noincore,xqc) Test 
#IOP(5/87=12) Density=Current Pop=(MK,readradii) iop(6/33=2) iop(6/42=6)

apoCaM-CA-Ng.loop4.water3.frame273 

   -3  1 
C         43.18576       25.49170        5.04820
C         43.65130       24.74759        3.83399
O         44.61768       24.01089        3.93897
H         42.14700       25.18610        5.29262
H         43.83538       25.26181        5.92137
H         43.21664       26.58342        4.85532
N         42.97197       24.86349        2.65431
C         43.28886       24.14204        1.42242
C         43.50223       22.66299        1.67115
O         44.61639       22.18318        1.56385
C         44.30147       24.87013        0.49670
C         45.73444       25.05382        0.91798
O         46.21308       24.57637        2.07497
O         46.49254       25.64823        0.16824
H         42.12294       25.44938        2.64828
H         42.37770       24.18996        0.78235
H         43.88757       25.88291        0.29506
H         44.32167       24.32030       -0.47117
N         42.42506       21.90279        2.02567
C         42.38801       20.47349        2.33680
C         42.72629       19.60727        1.12301
O         41.80935       19.00410        0.58202
C         43.17544       20.13071        3.63186
C         43.03025       18.63996        4.04194
C         42.72940       21.05160        4.78394
C         41.59499       18.20729        4.37160
H         41.51817       22.39145        2.09178
H         41.31893       20.26924        2.56244
H         44.25263       20.32001        3.45742
H         43.66291       18.44583        4.93693
H         43.41570       17.99604        3.22348
H         43.26311       20.79497        5.71317
H         42.95265       22.10976        4.55162
H         41.63978       20.97245        4.97326
H         40.91464       18.34152        3.50962
H         41.57776       17.13156        4.61155
H         41.20054       18.76035        5.24922
N         43.99300       19.48883        0.62880
C         44.28997       18.80621       -0.62592
C         44.55989       17.31146       -0.43579
O         43.84017       16.54244       -1.05789
C         45.39526       19.54976       -1.41593
C         45.02752       20.97048       -1.77926
O         45.90032       21.71684       -2.48186
O         43.95466       21.45626       -1.45456
H         44.76910       19.95877        1.10482
H         43.39905       18.87846       -1.29349
H         45.58566       19.00244       -2.36431
H         46.33828       19.59363       -0.84552
N         45.53034       16.76991        0.36384
C         46.42447       17.53563        1.21855
C         47.39211       16.67858        2.02739
O         47.34393       15.46248        1.90760
H         45.59574       15.74066        0.36906
H         45.79093       18.08598        1.93181
H         47.02163       18.20535        0.59157
N         48.30858       17.19831        2.90840
C         48.56980       18.60658        3.21253
C         47.30611       19.29102        3.70607
O         46.70854       20.02269        2.93068
C         49.23331       19.32202        2.00402
C         50.11451       20.51184        2.36036
O         51.29425       20.45829        2.04952
O         49.68566       21.63315        2.98873
H         48.88792       16.51861        3.42739
H         49.34295       18.63304        4.01157
H         48.49611       19.61960        1.23757
H         49.91177       18.58056        1.52388
N         46.80193       19.14419        4.96575
C         47.43483       18.43678        6.06369
C         47.33440       16.94239        5.96042
O         46.75475       16.42721        5.01549
H         45.93555       19.65084        5.19053
H         46.89777       18.70490        6.99990
H         48.48614       18.77258        6.17851
N         47.82100       16.17797        6.97845
C         47.67236       14.73183        7.02039
C         46.43484       14.31756        7.81356
O         46.12226       13.13632        7.81535
C         49.01673       14.02574        7.34895
C         49.85873       14.46170        8.56812
C         49.20675       14.23342        9.89560
N         49.66883       13.30007       10.76003
O         48.26608       14.92878       10.21310
H         48.21724       16.65579        7.80277
H         47.41375       14.36043        6.00364
H         49.67985       14.21199        6.47570
H         48.84275       12.92930        7.39920
H         50.15760       15.52950        8.49059
H         50.79524       13.86471        8.52999
H         50.47426       12.70485       10.52037
H         49.20977       13.16433       11.67307
N         45.61126       15.24643        8.39088
C         44.27257       14.94462        8.90672
C         44.16177       15.14273       10.40623
O         43.06975       14.97654       10.93785
C         43.20155       15.76641        8.13057
C         43.15794       15.31943        6.66603
C         43.39840       17.29451        8.21028
H         45.90442       16.23078        8.41818
H         44.02308       13.87226        8.75058
H         42.20561       15.52971        8.56746
H         42.32113       15.82294        6.15458
H         44.10749       15.55822        6.14110
H         42.97327       14.22615        6.60176
H         43.41146       17.63588        9.26611
H         44.33766       17.61763        7.71425
H         42.56330       17.81239        7.69069
N         45.25903       15.39228       11.16649
C         45.25207       15.44033       12.61481
C         45.85820       16.73247       13.15093
O         45.74821       16.94611       14.34824
C         46.07767       14.25540       13.18860
C         45.63023       12.88335       12.72850
N         45.79830       12.47734       11.44586
O         45.15153       12.10787       13.54249
H         46.15807       15.46766       10.70044
H         44.20831       15.36014       12.99162
H         46.00404       14.29540       14.29791
H         47.15141       14.36599       12.92031
H         46.24361       13.08352       10.74425
H         45.51053       11.53131       11.15416
N         46.61379       17.57359       12.36982
C         47.40955       18.65292       12.94077
C         47.38022       19.92279       12.11183
O         47.58375       19.86443       10.91004
C         48.89246       18.22654       13.01478
C         49.12629       16.99807       13.85973
C         48.73179       16.96380       15.20905
C         49.76547       15.87744       13.30572
C         48.95818       15.82235       15.98220
C         50.00154       14.74178       14.08442
C         49.59574       14.70705       15.42146
O         49.82662       13.60118       16.15660
H         46.77768       17.36030       11.37963
H         47.09214       18.87877       13.97992
H         49.47771       19.05943       13.46488
H         49.28143       18.06036       11.98489
H         48.24486       17.81577       15.66539
H         50.09019       15.88474       12.27314
H         48.64111       15.80822       17.01726
H         50.50231       13.88763       13.64791
H         49.56126       13.53666       17.08497
N         47.31333       21.11882       12.76491
C         47.67431       22.44284       12.25185
C         46.83775       23.01120       11.12196
O         47.04173       24.17881       10.81503
C         49.20293       22.57831       12.00819
C         49.76874       21.95560       10.72129
C         51.25538       22.15914       10.64501
O         51.77401       23.40169       10.64512
O         52.00247       21.19498       10.58276
H         47.11732       21.08958       13.77719
H         47.48492       23.13218       13.10768
H         49.73244       22.15735       12.89177
H         49.43745       23.66545       11.96808
H         49.29169       22.42751        9.83492
H         49.59781       20.87054       10.69173
N         45.84180       22.31561       10.50387
C         44.89457       22.98273        9.62135
C         43.73470       23.53254       10.44279
O         42.88215       24.20269        9.87627
C         44.35082       22.00575        8.56594
C         45.42136       21.29682        7.73067
C         46.20111       22.18950        6.80661
O         47.03386       22.96707        7.24277
O         46.05252       22.03265        5.47738
H         45.61302       21.36390       10.81821
H         45.38894       23.83291        9.10013
H         43.64731       22.53348        7.88288
H         43.77811       21.21332        9.09682
H         44.89459       20.54271        7.11753
H         46.12460       20.73065        8.37650
N         43.62518       23.28174       11.78307
C         42.53037       23.77879       12.58085
H         41.56867       23.39293       12.18358
H         42.64634       23.42804       13.62971
H         42.53080       24.88806       12.57395
H         44.32284       22.70721       12.27583
Ca        47.74783       22.21027        3.99968
O         47.81235       22.14272        0.48535
H         46.88278       22.17292        0.14913
H         48.36097       22.46296       -0.27373
O         47.78354       25.36495        4.70562
H         47.93716       24.56250        5.26316
H         47.57522       26.07939        5.35774
O         49.18918       24.53324        2.06898
H         48.88821       25.45587        1.87300
H         50.15772       24.53869        1.86585

Ca 1.0



