%chk=apoCaM-CA-Ng.loop4.water3.frame33.chk
%nprocshared=20
%mem=10GB
%nosave
#b3lyp/svp scf=(tight,noincore,xqc) Test 
#IOP(5/87=12) Density=Current Pop=(MK,readradii) iop(6/33=2) iop(6/42=6)

apoCaM-CA-Ng.loop4.water3.frame33 

   -3  1 
C         55.64554       78.72431       35.39537
C         54.81881       79.96054       35.24315
O         53.66046       79.94164       35.63607
H         56.50645       78.94500       36.06050
H         55.04418       77.90995       35.85581
H         56.01253       78.38973       34.40451
N         55.36693       81.09806       34.71718
C         54.66022       82.37188       34.64262
C         54.17033       82.74771       36.02593
O         52.97412       82.78027       36.25660
C         53.61606       82.45842       33.49043
C         52.61413       81.34812       33.35364
O         51.29946       81.60428       33.47427
O         52.97868       80.23104       33.02278
H         56.36039       81.08381       34.44167
H         55.38391       83.17316       34.36962
H         54.16496       82.49640       32.52413
H         53.08068       83.42933       33.59177
N         55.10677       83.00461       36.99287
C         54.90545       83.40835       38.38754
C         54.40238       84.84248       38.52484
O         55.10740       85.65140       39.11311
C         54.06222       82.40234       39.21678
C         53.98027       82.81002       40.71821
C         54.60794       80.97082       39.08373
C         55.33447       82.95217       41.42984
H         56.09393       82.89520       36.71158
H         55.92208       83.40159       38.83707
H         53.02582       82.39298       38.82513
H         53.37815       82.05091       41.26160
H         53.44600       83.77945       40.81262
H         55.66312       80.89944       39.41560
H         53.99580       80.27651       39.69270
H         54.55322       80.62965       38.03238
H         55.91388       82.00873       41.38600
H         55.94524       83.76762       40.99521
H         55.16636       83.21555       42.49426
N         53.20671       85.23856       38.01624
C         52.69781       86.59287       38.12193
C         52.18195       86.92466       39.52211
O         52.65766       87.91603       40.05653
C         51.60814       86.85858       37.06303
C         52.14286       86.67059       35.66629
O         53.18800       87.40326       35.23493
O         51.62862       85.85913       34.91456
H         52.64233       84.57716       37.48688
H         53.52080       87.30096       37.86430
H         51.26264       87.91155       37.15422
H         50.74151       86.18752       37.21822
N         51.19022       86.24863       40.19162
C         50.58179       84.97215       39.83641
C         49.19592       85.12026       39.24401
O         48.81736       86.24133       38.93500
H         50.86717       86.65207       41.08470
H         50.54883       84.34988       40.75284
H         51.19757       84.43671       39.11056
N         48.36923       84.05699       38.98025
C         48.53661       82.67093       39.43975
C         49.90551       82.07412       39.20198
O         50.50092       82.35982       38.17503
C         47.44114       81.73776       38.86546
C         47.29362       81.75589       37.35734
O         46.46291       82.49531       36.85504
O         47.88725       80.83349       36.57050
H         47.49375       84.27634       38.48039
H         48.39829       82.70469       40.53868
H         46.46193       82.05024       39.28983
H         47.59401       80.69211       39.21159
N         50.51301       81.25583       40.12050
C         49.89397       80.71203       41.33029
C         50.32536       81.44139       42.58253
O         51.00876       82.45090       42.48622
H         51.47575       80.94253       39.92784
H         50.18148       79.64051       41.40502
H         48.78757       80.71961       41.28322
N         49.96499       80.96155       43.81276
C         50.35709       81.60939       45.06625
C         51.58015       80.95595       45.69185
O         52.10784       81.51269       46.64411
C         49.18136       81.68623       46.06700
C         48.74963       80.30596       46.61062
C         47.65415       80.38581       47.64648
N         47.20002       79.25131       48.22662
O         47.17645       81.46273       47.97344
H         49.45736       80.06535       43.85083
H         50.66332       82.65540       44.84119
H         48.31816       82.19244       45.58183
H         49.50402       82.31118       46.92980
H         49.62212       79.81330       47.09116
H         48.39251       79.66259       45.78141
H         47.59310       78.33702       47.96506
H         46.45753       79.28412       48.94034
N         52.11794       79.81200       45.17947
C         53.39553       79.25908       45.61463
C         53.29229       77.82299       46.10278
O         54.34374       77.23507       46.32992
C         54.42303       79.37761       44.45159
C         54.69327       80.85041       44.12884
C         54.00004       78.62737       43.17325
H         51.64852       79.34108       44.39581
H         53.81974       79.83759       46.46509
H         55.38820       78.94641       44.79842
H         55.03860       81.38930       45.03708
H         55.49672       80.91558       43.37079
H         53.78038       81.35239       43.74203
H         54.80240       78.70039       42.40893
H         53.82531       77.55275       43.38835
H         53.08003       79.06008       42.72737
N         52.10176       77.19642       46.34381
C         52.04090       75.80342       46.78826
C         51.14902       74.92095       45.92031
O         51.19696       73.71696       46.12153
C         51.68213       75.70900       48.28997
C         50.32499       76.23403       48.68395
N         49.93666       76.17742       49.97942
O         49.57363       76.71031       47.85020
H         51.22821       77.73559       46.25639
H         53.05306       75.34931       46.70641
H         52.44695       76.27548       48.86531
H         51.74447       74.64432       48.60463
H         50.56002       75.77943       50.69779
H         49.01175       76.52998       50.26702
N         50.31089       75.41932       44.95511
C         49.49375       74.55254       44.10371
C         49.69071       74.88454       42.63034
O         50.21002       75.94212       42.31004
C         47.99659       74.74039       44.43241
C         47.65616       74.47407       45.87919
C         47.12729       75.50524       46.67389
C         47.84218       73.20142       46.44516
C         46.80026       75.27273       48.01223
C         47.51123       72.97001       47.78539
C         46.99085       74.00749       48.57361
O         46.66875       73.80150       49.86657
H         50.21888       76.43433       44.82578
H         49.76919       73.48766       44.26205
H         47.38073       74.06180       43.80307
H         47.71618       75.78532       44.17096
H         46.97171       76.49385       46.26032
H         48.23812       72.38823       45.85029
H         46.39922       76.07901       48.61348
H         47.65756       71.98475       48.20975
H         46.78129       72.94139       50.29538
N         49.20670       74.02414       41.68366
C         49.11494       74.26206       40.24027
C         50.41921       74.43754       39.47305
O         50.32644       74.44690       38.25269
C         48.22668       75.49150       39.93868
C         46.80880       75.36928       40.50258
C         46.02926       76.62083       40.21449
O         45.54320       77.35978       41.22977
O         45.83984       76.97974       39.06271
H         48.79157       73.14113       42.01804
H         48.62670       73.36163       39.80106
H         48.14419       75.62540       38.83668
H         48.70967       76.40334       40.35212
H         46.84987       75.21830       41.60111
H         46.29440       74.49817       40.04213
N         51.63796       74.63544       40.05409
C         52.82377       74.98296       39.27159
C         53.93875       73.96867       39.44955
O         54.98351       74.14522       38.83632
C         53.32820       76.38217       39.69120
C         52.26076       77.48645       39.68737
C         51.65212       77.81211       38.35691
O         51.75016       79.06474       37.89544
O         50.94313       77.01263       37.77193
H         51.73888       74.61056       41.07493
H         52.58890       75.02007       38.18608
H         54.17543       76.69313       39.04016
H         53.70341       76.31837       40.73633
H         52.73282       78.40801       40.08342
H         51.43779       77.22607       40.38268
N         53.80898       72.88570       40.26774
C         54.88375       71.93899       40.45443
H         55.77150       72.45699       40.87600
H         54.56573       71.14480       41.16241
H         55.14871       71.47104       39.48329
H         52.93603       72.71457       40.78534
Ca        49.91005       79.97262       37.00729
O         49.64531       83.20527       35.56762
H         50.51757       83.54186       35.24535
H         49.16423       84.01327       35.87634
O         50.54475       78.15577       34.30905
H         51.07646       78.18208       33.47430
H         51.17686       77.82290       34.99454
O         48.40746       80.93740       33.78334
H         48.22876       81.78760       33.30904
H         47.50978       80.58948       34.01405

Ca 1.0



