%chk=apoCaM-CA-Ng.loop2.water5.frame1104.chk
%nprocshared=20
%mem=10GB
%nosave
#b3lyp/svp scf=(tight,noincore,xqc) Test 
#IOP(5/87=12) Density=Current Pop=(MK,readradii) iop(6/33=2) iop(6/42=6)

apoCaM-CA-Ng.loop2.water5.frame1104 

   -2  1 
C         37.57788      -22.85614       60.41263
C         38.78643      -23.59855       60.91848
O         39.35065      -23.12854       61.89593
H         36.82785      -22.80371       61.22991
H         37.88031      -21.82276       60.14370
H         37.07593      -23.29565       59.53800
N         39.28094      -24.75221       60.38015
C         38.77425      -25.48865       59.22385
C         39.87502      -25.61493       58.16893
O         40.85243      -24.88177       58.24106
C         38.19020      -26.84731       59.69191
C         39.19295      -27.80320       60.27372
O         39.42002      -28.98263       59.66758
O         39.77440      -27.54097       61.31286
H         40.10459      -25.15483       60.84941
H         37.92949      -24.98237       58.73045
H         37.68744      -27.34389       58.83671
H         37.39232      -26.66250       60.44292
N         39.79803      -26.55074       57.17653
C         40.80301      -26.76413       56.14266
C         42.21256      -26.85644       56.70353
O         43.11595      -26.26013       56.12986
C         40.68681      -25.68877       55.05352
H         39.00242      -27.20100       57.15932
H         40.57445      -27.73972       55.65815
H         40.90889      -24.68320       55.46956
H         41.39770      -25.90044       54.22500
H         39.65974      -25.68659       54.63297
N         42.47519      -27.55238       57.84758
C         43.82659      -27.66464       58.38076
C         44.19546      -29.09993       58.67194
O         43.33246      -29.96083       58.76865
C         44.01541      -26.77312       59.63172
C         43.11346      -27.11809       60.78595
O         43.17921      -28.32890       61.36988
O         42.34970      -26.27869       61.23215
H         41.69550      -27.97992       58.36988
H         44.55808      -27.29766       57.62895
H         43.83545      -25.71570       59.33686
H         45.06610      -26.84486       59.98656
N         45.50311      -29.39488       58.87744
C         45.99415      -30.66655       59.36725
C         46.66427      -30.36985       60.67613
O         46.21855      -30.85584       61.70527
H         46.19103      -28.64057       58.73272
H         46.71882      -31.10234       58.64750
H         45.16646      -31.39493       59.51896
N         47.70842      -29.49299       60.70528
C         48.28166      -28.96922       61.93271
C         48.11881      -27.45219       61.96134
O         47.81062      -26.84524       60.94325
C         49.76863      -29.37010       61.99403
C         50.44795      -28.92858       63.26465
N         51.48215      -28.05596       63.22837
O         50.05660      -29.36019       64.33890
H         48.08362      -29.13477       59.81269
H         47.74366      -29.39065       62.80955
H         50.28766      -28.93463       61.11115
H         49.85251      -30.47594       61.92467
H         51.82450      -27.67677       62.33343
H         51.93793      -27.74927       64.10021
N         48.30525      -26.77481       63.12555
C         48.26508      -25.32851       63.24352
C         49.46161      -24.67609       62.57364
O         50.21800      -25.36254       61.90102
H         48.47843      -27.30900       63.98850
H         48.33454      -25.09463       64.32686
H         47.30538      -24.92103       62.85631
N         49.77324      -23.36129       62.76091
C         49.01254      -22.43260       63.59309
C         48.71203      -21.16647       62.80113
O         49.24923      -20.99567       61.71442
C         49.85639      -22.16592       64.87620
C         49.20325      -21.25589       65.91872
O         50.11827      -23.39573       65.50709
H         50.65295      -23.01593       62.34319
H         48.04300      -22.87833       63.89271
H         50.81769      -21.67635       64.58483
H         51.02918      -23.68384       65.23622
H         49.85406      -21.19745       66.81701
H         49.09676      -20.21979       65.54626
H         48.21615      -21.66339       66.22637
N         47.86555      -20.22168       63.30049
C         47.64676      -18.92434       62.67549
C         48.20607      -17.87175       63.63194
O         47.76133      -17.85426       64.77132
C         46.14223      -18.70245       62.35970
C         45.68754      -19.73816       61.29512
C         45.91664      -17.25860       61.86570
C         44.19956      -19.67469       60.94987
H         47.38200      -20.40496       64.19121
H         48.16296      -18.90210       61.71040
H         45.54825      -18.84318       63.28995
H         45.88952      -20.76219       61.67614
H         46.27330      -19.59745       60.35910
H         44.84730      -17.06264       61.65386
H         46.21018      -16.52286       62.64293
H         46.52658      -17.06326       60.95978
H         43.96293      -20.47196       60.21355
H         43.58638      -19.83686       61.86061
H         43.92842      -18.70612       60.48462
N         49.18965      -16.97404       63.30913
C         49.77929      -16.76322       61.98574
C         49.62697      -15.32030       61.55173
O         49.24076      -14.48184       62.35712
C         51.25426      -17.22779       61.96511
C         52.19548      -16.49183       62.89047
O         51.78195      -15.46318       63.65533
O         53.36662      -16.83199       62.93885
H         49.52858      -16.37148       64.07483
H         49.25882      -17.33662       61.21096
H         51.65219      -17.13263       60.93179
H         51.27425      -18.30621       62.23684
N         49.88590      -14.96223       60.26212
C         49.82435      -13.57618       59.81550
C         49.94520      -13.49797       58.29809
O         50.88906      -14.08169       57.77810
C         51.00642      -12.79304       60.44287
C         50.85896      -11.31028       60.22889
C         51.72473      -10.60876       59.37428
C         49.83733      -10.61495       60.89864
C         51.55785       -9.23279       59.18379
C         49.67844       -9.24093       60.71027
C         50.53602       -8.55015       59.85108
H         50.12654      -15.70486       59.58610
H         48.85898      -13.14197       60.14677
H         51.95582      -13.17358       60.00253
H         51.07956      -12.95664       61.53791
H         52.51718      -11.12541       58.84726
H         49.16488      -11.14010       61.56615
H         52.21961       -8.69485       58.51777
H         48.88859       -8.71411       61.22959
H         50.40840       -7.48589       59.70378
N         49.10674      -12.75433       57.50685
C         48.06652      -11.84220       57.97450
C         46.79821      -12.48454       58.48560
O         46.19127      -11.93224       59.39338
C         47.72644      -11.00535       56.73126
C         49.03427      -11.03240       55.96556
C         49.38940      -12.50331       56.10706
H         48.50286      -11.14311       58.71282
H         46.98091      -11.54001       56.09747
H         47.32398       -9.99479       56.96203
H         48.96088      -10.67167       54.91840
H         49.79073      -10.42405       56.51419
H         48.69212      -13.11141       55.48606
H         50.43579      -12.71259       55.79863
N         46.26934      -13.58051       57.86987
C         44.91398      -14.04189       58.14539
C         43.95044      -13.02026       57.54240
O         44.00524      -12.85649       56.33062
C         44.64613      -15.41879       57.49257
C         45.46390      -16.53392       58.15624
C         45.21303      -17.86511       57.50903
O         46.23581      -18.55288       56.96659
O         44.08808      -18.33914       57.48626
H         46.82017      -14.05402       57.13734
H         44.79395      -14.18438       59.23331
H         44.87396      -15.37458       56.40424
H         43.56863      -15.67101       57.61515
H         45.16522      -16.60167       59.21995
H         46.54854      -16.30086       58.10020
N         43.05140      -12.26903       58.24580
C         42.83993      -12.27031       59.67912
H         41.78405      -12.53926       59.88917
H         43.48593      -12.96195       60.23886
H         43.02746      -11.24763       60.06904
H         42.46042      -11.61364       57.71015
Ca        40.88679      -30.43058       60.58016
O         37.97416      -31.66583       60.52671
H         37.50091      -30.83660       60.26436
H         37.97929      -31.64495       61.51661
O         43.29344      -31.14217       62.36103
H         43.73567      -30.86139       63.20114
H         43.68782      -32.02597       62.15300
O         40.61340      -32.63840       62.64550
H         40.29151      -32.55600       63.57798
H         40.40794      -33.57260       62.39053
O         40.91312      -29.32037       63.76886
H         40.48571      -29.93652       64.41546
H         41.80002      -29.12349       64.16268
O         42.31727      -32.99182       59.64036
H         42.39393      -32.51244       58.77760
H         41.46466      -33.49025       59.57048

Ca 1.0



