%chk=apoCaM-CA-Ng.loop1.water3.frame1068.chk
%nprocshared=20
%mem=10GB
%nosave
#b3lyp/svp scf=(tight,noincore,xqc) Test 
#IOP(5/87=12) Density=Current Pop=(MK,readradii) iop(6/33=2) iop(6/42=6)

apoCaM-CA-Ng.loop1.water3.frame1068 

   0  1 
C          1.83305       64.89050       26.33963
C          1.59967       63.49397       26.83861
O          1.99008       63.20126       27.95990
H          2.92383       65.08470       26.26001
H          1.37247       65.04809       25.34183
H          1.38610       65.61453       27.05222
N          1.00385       62.56216       26.03902
C          0.77493       61.17981       26.45070
C          1.87972       60.28321       25.92207
O          1.61419       59.30741       25.23300
C         -0.65506       60.69281       26.08860
C         -1.00591       60.76187       24.61946
O         -1.14948       61.95052       24.00226
O         -1.22927       59.73735       23.99455
H          0.77995       62.83565       25.07359
H          0.86058       61.09554       27.55530
H         -1.40953       61.28422       26.64814
H         -0.74340       59.63630       26.42877
N          3.17281       60.55703       26.25723
C          4.29068       59.70075       25.88684
C          4.21229       58.39310       26.67135
O          4.13314       57.35866       26.02417
C          5.66410       60.41459       26.02882
C          5.71851       61.79787       25.33969
C          5.46501       61.76011       23.82277
C          5.39296       63.16463       23.19645
N          6.62262       63.93529       23.38362
H          3.36156       61.40303       26.80860
H          4.20507       59.46683       24.80373
H          6.45264       59.75667       25.60213
H          5.94015       60.58134       27.08405
H          6.72665       62.22197       25.52803
H          4.98141       62.47940       25.81150
H          4.48494       61.28617       23.61069
H          6.26061       61.15988       23.33097
H          4.53603       63.72502       23.63405
H          5.19971       63.04652       22.10706
H          6.53928       64.83476       22.85723
H          6.75969       64.16803       24.39297
H          7.44465       63.40175       23.01998
N          4.15428       58.30667       28.04145
C          4.20007       59.42385       28.98974
C          2.85573       59.68237       29.62111
O          1.93119       58.90586       29.43247
C          5.30210       59.20408       30.04803
C          5.23299       57.85968       30.73153
O          4.17726       57.47108       31.48936
O          6.17178       57.09424       30.58622
H          4.02140       57.36326       28.43993
H          4.41679       60.36656       28.47751
H          5.28500       60.00919       30.81130
H          6.28042       59.26858       29.52096
N          2.65465       60.84635       30.30878
C          1.35806       61.21897       30.84198
C          0.99415       60.38140       32.03021
O          1.85830       59.71193       32.57398
H          3.42665       61.52526       30.39080
H          0.60123       61.11152       30.03601
H          1.36262       62.27885       31.17357
N         -0.29273       60.34689       32.47297
C         -0.71206       59.48767       33.57644
C         -1.71279       60.25356       34.46866
O         -2.17994       61.29687       34.03157
C         -1.30535       58.20770       32.93170
C         -0.97300       56.93736       33.66067
O         -1.87759       56.24266       34.09517
O          0.30624       56.50610       33.79691
H         -1.00794       60.84939       31.92381
H          0.19265       59.21801       34.15803
H         -0.86167       58.05685       31.92874
H         -2.39837       58.34113       32.76853
N         -2.12535       59.86206       35.71241
C         -1.61921       58.73542       36.46739
C         -0.18260       58.92863       36.87746
O          0.40176       59.96979       36.60518
H         -2.84393       60.43665       36.18168
H         -1.75555       57.80746       35.90380
H         -2.20920       58.63061       37.40398
N          0.44925       57.94563       37.57477
C          1.82911       58.07030       38.03306
C          2.77958       58.25919       36.85790
O          2.41398       57.98721       35.72375
C          2.20118       56.83690       38.90696
C          3.61789       56.86233       39.48919
O          2.03923       55.65973       38.15803
H         -0.08539       57.09238       37.80155
H          1.88282       58.98411       38.66711
H          1.48482       56.84191       39.76355
H          1.77927       54.94274       38.79417
H          3.78104       57.78519       40.08346
H          3.75989       55.98525       40.15534
H          4.37863       56.78922       38.68494
N          4.01719       58.78084       37.08211
C          5.05222       58.99790       36.08191
C          5.50976       57.66448       35.50820
O          4.77659       57.04727       34.74916
C          4.63585       60.00146       34.95541
C          4.06094       61.31314       35.55330
C          5.84824       60.29479       34.04355
C          3.54366       62.29775       34.49760
H          4.25749       59.05562       38.04636
H          5.90822       59.46057       36.62475
H          3.84169       59.53523       34.33598
H          4.82692       61.81988       36.17920
H          3.19410       61.06242       36.20079
H          5.56938       60.94336       33.19004
H          6.65689       60.79284       34.62154
H          6.25355       59.36012       33.60390
H          3.08680       63.17571       35.00031
H          4.36034       62.67515       33.85029
H          2.76868       61.81774       33.86655
N          6.74929       57.18635       35.80208
C          7.34182       56.05221       35.09809
C          7.03028       54.68931       35.71404
O          7.45949       53.70038       35.13477
C          8.87666       56.26758       34.95949
C          9.63299       56.17922       36.29545
O          9.13330       57.52424       34.38465
H          7.34341       57.76065       36.41607
H          6.94387       56.04552       34.05826
H          9.30281       55.47311       34.30482
H          8.84895       57.47393       33.43512
H          9.30001       56.95070       37.01880
H          9.49957       55.17905       36.75772
H         10.71840       56.33270       36.11685
N          6.35463       54.54014       36.89304
C          6.21394       53.23258       37.53911
C          5.34127       52.28332       36.71971
O          4.14951       52.51921       36.58792
C          5.66456       53.38536       38.98350
C          5.59627       52.04618       39.73466
O          6.45114       54.29288       39.71685
H          6.01875       55.37952       37.38700
H          7.23853       52.80533       37.63285
H          4.63551       53.80246       38.92928
H          7.38041       53.94205       39.73778
H          6.60848       51.59507       39.81832
H          5.19584       52.21034       40.75748
H          4.92809       51.32978       39.21280
N          5.89728       51.17625       36.14705
C          5.18799       50.15988       35.37362
C          4.41353       50.77976       34.21547
O          3.19107       50.69910       34.19607
C          4.24911       49.28948       36.25051
C          4.07421       47.89731       35.58619
C          2.80328       47.14577       36.01466
C          1.57891       47.50382       35.14184
N          1.68151       46.92740       33.79079
H          6.91488       51.04081       36.24917
H          5.96855       49.47334       34.97201
H          3.28894       49.82296       36.42065
H          4.68425       49.10489       37.25755
H          4.97082       47.30901       35.88209
H          4.11000       47.95539       34.48220
H          2.60910       47.35001       37.08966
H          2.95839       46.05051       35.90729
H          1.44219       48.60545       35.08502
H          0.67356       47.07062       35.61958
H          1.75455       45.88470       33.85273
H          0.82035       47.16002       33.24647
H          2.50037       47.29422       33.25896
N          5.06226       51.41145       33.20276
C          4.34559       52.06104       32.10697
C          4.76138       53.52080       31.99573
O          3.89616       54.35764       32.21175
C          4.43923       51.25481       30.79219
C          3.76757       49.87732       30.95379
C          3.83857       49.07276       29.69002
O          4.46066       47.87821       29.68839
O          3.31993       49.48512       28.66489
H          6.09008       51.41136       33.21934
H          3.25378       52.08272       32.32876
H          5.47985       51.10397       30.45866
H          3.90095       51.81443       29.99525
H          2.69792       50.01010       31.23018
H          4.26909       49.30703       31.76479
N          6.01430       53.97141       31.69172
C          7.19157       53.18889       31.38388
H          7.99533       53.44622       32.10363
H          7.04091       52.10506       31.42795
H          7.53468       53.44629       30.35957
H          6.15198       54.98856       31.67486
Ca         2.27240       57.06100       32.72295
O          1.03705       53.81908       32.52008
H          0.90705       53.75752       31.54069
H          0.13523       54.01104       32.87924
O          0.87492       56.22584       30.20665
H         -0.00471       55.78537       30.10520
H          0.65716       57.10769       30.59527
O          2.71182       55.11712       35.16073
H          1.86103       54.94272       35.63468
H          3.07855       54.22031       34.96398

Ca 1.0



