%chk=apoCaM-CA-Ng.loop1.water5.frame398.chk
%nprocshared=20
%mem=10GB
%nosave
#b3lyp/svp scf=(tight,noincore,xqc) Test 
#IOP(5/87=12) Density=Current Pop=(MK,readradii) iop(6/33=2) iop(6/42=6)

apoCaM-CA-Ng.loop1.water5.frame398 

   0  1 
C        -14.76621       89.70856        6.22125
C        -14.43719       88.63527        5.22445
O        -13.81097       88.91787        4.21378
H        -15.87005       89.77660        6.33458
H        -14.32059       89.45635        7.20631
H        -14.38185       90.69524        5.88925
N        -14.84962       87.36139        5.46002
C        -14.61614       86.22775        4.56379
C        -15.35663       86.31157        3.21631
O        -15.31577       85.33335        2.49274
C        -14.91917       84.88660        5.29381
C        -16.34603       84.67848        5.73735
O        -16.98968       83.74201        5.29320
O        -16.89914       85.46346        6.68092
H        -15.31631       87.19331        6.36122
H        -13.52979       86.17462        4.33793
H        -14.26223       84.80381        6.18725
H        -14.64006       84.05167        4.61782
N        -16.01960       87.41634        2.77424
C        -16.74361       87.47467        1.50277
C        -16.09847       88.51696        0.58118
O        -15.96693       89.64469        1.03832
C        -18.19640       87.85055        1.85541
C        -19.16194       87.91536        0.66865
C        -20.53997       88.37339        1.15869
C        -21.54993       88.47007        0.01319
N        -22.83776       88.95934        0.50263
H        -16.04702       88.26382        3.35356
H        -16.75828       86.48821        1.01440
H        -18.18738       88.84038        2.36367
H        -18.58698       87.09719        2.57643
H        -19.25471       86.91156        0.20627
H        -18.78430       88.63814       -0.08658
H        -20.43703       89.37541        1.62993
H        -20.92045       87.65704        1.92011
H        -21.68311       87.46887       -0.45461
H        -21.16854       89.17564       -0.75350
H        -23.21853       88.31106        1.22955
H        -22.72268       89.91627        0.91011
H        -23.51074       89.01208       -0.29536
N        -15.68340       88.30198       -0.71556
C        -15.77277       87.07758       -1.51397
C        -17.20404       86.57782       -1.66784
O        -17.54542       85.57753       -1.05039
C        -14.80222       85.95828       -1.07257
C        -13.37125       86.12661       -1.49559
O        -13.00587       87.09652       -2.13689
O        -12.49504       85.13788       -1.23479
H        -15.29117       89.11730       -1.21270
H        -15.43150       87.29647       -2.54280
H        -15.09072       85.05498       -1.62383
H        -14.86732       85.76807        0.01226
N        -18.08276       87.09685       -2.57654
C        -17.79383       88.16103       -3.52999
C        -18.93306       89.15163       -3.63971
O        -19.90473       89.02015       -2.91234
H        -18.98943       86.61544       -2.67471
H        -17.66544       87.68235       -4.51727
H        -16.86885       88.71206       -3.27699
N        -18.90956       90.19891       -4.51859
C        -17.81980       90.46809       -5.45793
C        -17.73028       89.41687       -6.55659
O        -18.59145       88.55049       -6.64576
C        -17.94829       91.88373       -6.07891
C        -19.15462       92.07967       -6.96673
O        -20.40254       91.99757       -6.46826
O        -19.00217       92.35666       -8.14579
H        -19.70139       90.85571       -4.47337
H        -16.86929       90.46447       -4.88213
H        -17.03597       92.09008       -6.67928
H        -17.97453       92.63768       -5.26418
N        -16.69750       89.44759       -7.44666
C        -16.54576       88.47547       -8.51071
C        -16.29044       87.11125       -7.94271
O        -17.07692       86.20520       -8.18076
H        -15.98602       90.18954       -7.37408
H        -15.67283       88.74493       -9.14470
H        -17.45298       88.47768       -9.15302
N        -15.17121       86.88490       -7.20207
C        -14.86354       85.56985       -6.66716
C        -15.83267       85.28164       -5.53294
O        -15.76726       85.95471       -4.51929
C        -13.37868       85.47883       -6.22188
C        -12.42921       85.79574       -7.39471
O        -13.11446       84.17849       -5.76741
H        -14.51344       87.66524       -7.05222
H        -14.98709       84.82411       -7.48440
H        -13.19900       86.20733       -5.39748
H        -12.21619       84.19854       -5.34259
H        -12.59837       85.08745       -8.23370
H        -12.57258       86.82884       -7.77130
H        -11.37140       85.71015       -7.06868
N        -16.76187       84.29232       -5.64328
C        -17.72574       83.94862       -4.59396
C        -17.27263       82.70036       -3.83507
O        -18.04423       82.17017       -3.04837
C        -19.18382       83.83117       -5.16588
C        -19.29746       82.80145       -6.32353
C        -19.71137       85.21430       -5.59505
C        -20.73993       82.49676       -6.74330
H        -16.73907       83.71148       -6.49256
H        -17.75873       84.73089       -3.80908
H        -19.83615       83.48974       -4.33091
H        -18.84348       81.84126       -6.00052
H        -18.75343       83.16661       -7.22019
H        -19.67253       85.92144       -4.74423
H        -19.11454       85.63070       -6.43120
H        -20.77605       85.16604       -5.90133
H        -20.73328       81.73953       -7.55608
H        -21.31316       82.08683       -5.88527
H        -21.25808       83.39448       -7.13620
N        -15.99735       82.22588       -3.96144
C        -15.48210       81.03424       -3.28376
C        -15.47178       81.10173       -1.75113
O        -15.23293       80.07430       -1.13535
C        -14.02670       80.75595       -3.76638
C        -13.03715       81.85330       -3.30265
O        -14.01923       80.66815       -5.16916
H        -15.36181       82.71534       -4.60367
H        -16.13429       80.18714       -3.58961
H        -13.69424       79.78176       -3.34353
H        -13.09936       80.41343       -5.44204
H        -12.01548       81.63940       -3.67894
H        -13.33761       82.85872       -3.65140
H        -12.97558       81.89855       -2.20093
N        -15.61129       82.28363       -1.08209
C        -15.43422       82.48053        0.36198
C        -14.01157       82.14570        0.82814
O        -13.31693       81.37592        0.17821
C        -16.53956       81.78183        1.19272
C        -17.93465       82.30451        0.80936
O        -16.32930       81.96329        2.57116
H        -15.80606       83.11792       -1.63816
H        -15.54940       83.57089        0.54061
H        -16.51154       80.69018        0.99657
H        -16.43488       82.92954        2.77042
H        -18.71249       81.79246        1.41342
H        -18.00464       83.39845        1.00083
H        -18.14510       82.12147       -0.26421
N        -13.47790       82.77788        1.91447
C        -12.10571       82.60913        2.37519
C        -11.27296       83.88270        2.18460
O        -10.07517       83.81327        2.40240
C        -12.09109       82.27310        3.88591
C        -12.98828       81.09284        4.28485
C        -12.97931       80.91634        5.81454
C        -13.97140       79.85415        6.31555
N        -13.65375       78.51344        5.82496
H        -14.06440       83.43551        2.43201
H        -11.61361       81.79328        1.80053
H        -12.45292       83.17014        4.43611
H        -11.04734       82.07295        4.21481
H        -12.63356       80.17192        3.77736
H        -14.03170       81.30445        3.96887
H        -13.27731       81.88017        6.28512
H        -11.95271       80.66714        6.16148
H        -15.00530       80.13132        6.01109
H        -13.93591       79.84704        7.42815
H        -12.67888       78.25178        6.09813
H        -14.31980       77.83144        6.25459
H        -13.76255       78.46579        4.78736
N        -11.83880       85.09130        1.85160
C        -11.07674       86.34314        1.78928
C        -10.32731       86.56418        3.08986
O        -10.94833       86.67763        4.13705
C        -12.02782       87.54246        1.48790
C        -11.42543       88.94716        1.70419
C        -10.17930       89.21690        0.90954
O         -9.11400       89.35137        1.48975
O        -10.22046       89.38166       -0.42572
H        -12.84967       85.14370        1.68939
H        -10.33519       86.27297        0.96684
H        -12.90440       87.48079        2.16592
H        -12.40401       87.45678        0.45560
H        -11.18966       89.04924        2.78475
H        -12.18556       89.72307        1.46710
N         -8.96480       86.63611        3.07348
C         -8.15428       86.86043        4.25021
H         -7.55254       87.78238        4.10517
H         -8.76506       86.97777        5.16869
H         -7.46471       86.00139        4.38724
H         -8.46453       86.52919        2.17787
Ca       -12.13532       89.62472       -1.59217
O         -8.20222       89.31361       -2.62345
H         -7.59850       88.53420       -2.71460
H         -7.70312       90.06432       -3.03131
O         -9.80061       90.05538       -5.25358
H         -9.92909       90.92763       -5.70387
H         -8.84892       89.83236       -5.41228
O        -10.01753       92.07532       -2.16086
H        -10.58202       92.16121       -1.35181
H         -9.10063       92.27540       -1.84519
O        -10.55896       87.00836       -4.56295
H         -9.75614       87.03502       -5.14184
H        -10.65572       86.05400       -4.31735
O         -9.53120       86.90739       -1.70440
H        -10.40806       86.58802       -1.38094
H         -8.95392       86.10443       -1.69805

Ca 1.0



