%chk=apoCaM-CA-Ng.loop3.water2.frame599.chk
%nprocshared=20
%mem=10GB
%nosave
#b3lyp/svp scf=(tight,noincore,xqc) Test 
#IOP(5/87=12) Density=Current Pop=(MK,readradii) iop(6/33=2) iop(6/42=6)

apoCaM-CA-Ng.loop3.water2.frame599 

   0  1 
C         56.19501      112.33768       66.97090
C         56.85157      113.40725       66.14742
O         56.75525      113.36203       64.92953
H         55.10337      112.33674       66.77063
H         56.61885      111.34677       66.70755
H         56.35020      112.50972       68.05758
N         57.53461      114.41579       66.75367
C         58.16440      115.50850       66.02320
C         59.24246      114.97264       65.08876
O         60.16703      114.32084       65.55502
C         58.75355      116.51472       67.03612
C         59.25482      117.79796       66.44323
O         59.79060      118.72773       67.25577
O         59.15182      118.02745       65.24997
H         57.58410      114.41718       67.78504
H         57.37437      116.03792       65.44464
H         59.56819      116.02704       67.61261
H         57.95556      116.80226       67.74187
N         59.17399      115.20958       63.74600
C         60.16716      114.71599       62.78719
C         61.56379      115.25857       63.05303
O         62.53216      114.64801       62.62305
C         59.76043      115.08839       61.33930
C         59.82471      116.61160       61.08190
C         59.34271      116.98897       59.68171
C         59.48232      118.50432       59.46730
N         58.99379      118.89764       58.14776
H         58.36694      115.74610       63.39485
H         60.18691      113.60670       62.87559
H         58.73084      114.71268       61.15412
H         60.44424      114.58140       60.62277
H         60.87594      116.95625       61.18764
H         59.20137      117.15408       61.82358
H         58.27727      116.69162       59.57178
H         59.94886      116.45312       58.91893
H         60.55323      118.79430       59.56386
H         58.90399      119.04915       60.24638
H         59.12320      119.92867       58.03042
H         59.53161      118.40049       57.40138
H         57.97600      118.67243       58.06310
N         61.72042      116.46160       63.66899
C         62.99429      117.12689       63.88655
C         63.32568      117.22996       65.36614
O         64.41910      117.68145       65.67950
C         62.97773      118.51108       63.18385
C         61.74628      119.35303       63.47742
O         61.43261      119.71616       64.73589
O         61.01662      119.69584       62.56101
H         60.88036      116.95699       63.98337
H         63.82576      116.53161       63.44818
H         63.00291      118.33049       62.08663
H         63.89881      119.07623       63.44538
N         62.46489      116.80007       66.33529
C         62.78324      116.79734       67.75108
C         63.03467      118.16315       68.35952
O         63.34636      118.18394       69.54163
H         61.55805      116.39985       66.07530
H         63.68968      116.17099       67.90346
H         61.94868      116.31956       68.30920
N         62.96668      119.33102       67.64635
C         63.36259      120.62029       68.20353
C         62.25268      121.64889       68.13274
O         61.25253      121.42452       67.47170
C         64.64855      121.11588       67.46589
C         64.48993      122.33309       66.56618
N         63.63409      122.34230       65.51746
O         65.14490      123.33574       66.80921
H         62.69877      119.31256       66.66097
H         63.61440      120.48384       69.27616
H         65.09082      120.28237       66.87527
H         65.40260      121.37290       68.23972
H         63.05985      121.52096       65.29480
H         63.53086      123.18900       64.93669
N         62.41154      122.84126       68.76914
C         61.54905      123.99626       68.58862
C         60.08480      123.68002       68.71205
O         59.67569      123.12848       69.72486
H         63.23644      122.96285       69.37606
H         61.74490      124.42987       67.58569
H         61.82627      124.76336       69.34349
N         59.22668      124.02847       67.70463
C         57.79915      123.78575       67.79052
C         57.48505      122.33756       67.34733
O         57.76732      122.21389       65.97472
C         56.97123      124.92083       67.10217
C         56.97235      124.98898       65.58421
C         57.70542      125.98192       64.91071
C         56.18551      124.09999       64.82491
C         57.67536      126.06219       63.51247
C         56.15936      124.17990       63.43097
C         56.90592      125.16123       62.76844
O         56.88470      125.25235       61.42288
H         59.59025      124.53715       66.88441
H         57.51756      123.88816       68.86419
H         57.35212      125.88166       67.51326
H         55.90744      124.86150       67.42069
H         58.30364      126.69331       65.46523
H         55.58166      123.34450       65.30951
H         58.24844      126.82850       63.00593
H         55.55368      123.48194       62.86875
H         56.36007      124.65122       60.87411
N         56.05987      122.06873       67.58986
C         55.61949      120.66254       67.57144
C         55.84030      120.03517       66.20388
O         56.97642      119.76159       65.85173
C         56.22358      119.76396       68.71667
C         55.52310      118.36944       68.69264
C         56.07531      120.41824       70.10509
C         55.98333      117.37787       69.76863
H         55.73648      122.50854       68.48286
H         54.52208      120.70701       67.75177
H         57.31335      119.62331       68.54010
H         55.70957      117.89085       67.70834
H         54.42460      118.50070       68.80533
H         55.00648      120.59148       70.35005
H         56.52907      119.78447       70.89427
H         56.63007      121.37657       70.15510
H         55.47220      116.40411       69.60666
H         57.07786      117.21514       69.73003
H         55.70967      117.72357       70.78516
N         54.78023      119.69535       65.41913
C         54.91845      118.88360       64.21482
C         54.23418      119.46616       62.97588
O         54.20124      118.76691       61.97223
C         54.35691      117.49579       64.55184
O         53.00093      117.58419       64.90709
H         53.82785      119.90830       65.75353
H         55.98798      118.72668       63.95335
H         54.96391      117.08971       65.39792
H         54.47139      116.80045       63.69482
H         52.87583      117.02971       65.72149
N         53.67949      120.71533       62.94089
C         52.95790      121.22470       61.76830
C         53.84648      121.24166       60.52346
O         54.90239      121.85525       60.59384
C         52.43448      122.64241       62.02840
H         53.75342      121.31847       63.77393
H         52.06233      120.59761       61.62834
H         51.77218      122.64665       62.91955
H         53.26793      123.35487       62.19829
H         51.84243      122.99196       61.15432
N         53.52826      120.63302       59.33459
C         52.26463      119.96342       59.01478
C         51.25514      120.98849       58.48622
O         51.66376      122.11580       58.24106
C         52.54482      118.85709       57.98052
H         54.19582      120.76242       58.55628
H         51.86456      119.46439       59.91422
H         53.27448      118.13272       58.40332
H         51.63998      118.28944       57.69268
H         52.97777      119.28982       57.05356
N         49.91791      120.74312       58.30607
C         49.22244      119.49635       58.61694
C         48.23757      119.64583       59.76678
O         47.73020      118.62730       60.21863
C         48.49067      118.91826       57.37305
C         47.26066      119.71740       56.87009
C         47.59746      121.03717       56.23996
O         48.32134      121.08240       55.25824
O         47.08352      122.17717       56.74183
H         49.35480      121.53342       57.96600
H         49.95289      118.74485       58.96111
H         48.10691      117.91441       57.66098
H         49.20933      118.76364       56.53982
H         46.54223      119.87083       57.70481
H         46.74056      119.11298       56.09656
N         47.88727      120.85779       60.28295
C         46.93448      120.97107       61.36514
H         45.97276      120.49409       61.07660
H         47.33655      120.47425       62.27319
H         46.74411      122.04072       61.59340
H         48.27425      121.72953       59.89739
Ca        59.62356      120.97945       65.36212
O         57.81924      120.54004       62.83295
H         57.41471      119.91153       62.18385
H         58.43048      121.09821       62.29009
O         59.84893      123.24740       63.60974
H         60.18639      123.91404       64.25927
H         60.36859      123.41308       62.78406

Ca 1.0



