%chk=apoCaM-CA-Ng.loop3.water3.frame862.chk
%nprocshared=20
%mem=10GB
%nosave
#b3lyp/svp scf=(tight,noincore,xqc) Test 
#IOP(5/87=12) Density=Current Pop=(MK,readradii) iop(6/33=2) iop(6/42=6)

apoCaM-CA-Ng.loop3.water3.frame862 

   0  1 
C         81.67330       68.46873       75.89403
C         82.22025       69.78622       75.42486
O         83.34234       69.84374       74.94412
H         80.75281       68.22830       75.31846
H         82.40866       67.65116       75.74434
H         81.41343       68.53150       76.97175
N         81.44417       70.89672       75.52045
C         81.83341       72.21442       75.02785
C         83.05508       72.74559       75.77933
O         83.05241       72.72023       77.00179
C         80.60699       73.15163       75.11684
C         80.71859       74.39002       74.27826
O         79.76550       75.14604       74.19435
O         81.82153       74.64416       73.55783
H         80.50091       70.77862       75.92471
H         82.06912       72.11842       73.95344
H         80.38525       73.40540       76.17540
H         79.73096       72.61057       74.69633
N         84.13223       73.25042       75.10192
C         85.37906       73.69557       75.73651
C         85.45247       75.22222       75.86799
O         86.34685       75.71202       76.54277
C         86.54975       73.08903       74.92723
C         87.96772       73.43654       75.40397
C         89.00223       72.74669       74.50057
C         90.43923       73.08933       74.91118
N         91.40193       72.40411       74.04766
H         84.06283       73.34310       74.07772
H         85.41847       73.30912       76.77853
H         86.45691       73.42758       73.87645
H         86.43151       71.98280       74.93870
H         88.10256       73.10487       76.45581
H         88.13085       74.53272       75.33995
H         88.84682       73.07150       73.44713
H         88.85903       71.64553       74.55677
H         90.60892       72.78057       75.96608
H         90.59580       74.18872       74.83520
H         92.37199       72.65500       74.34603
H         91.28171       71.36798       74.12755
H         91.26788       72.69690       73.05228
N         84.50409       76.02688       75.31837
C         84.37738       77.46471       75.55329
C         83.04563       77.69792       76.24732
O         83.03140       78.25180       77.33751
C         84.52985       78.30248       74.25003
C         83.78334       77.76666       73.05771
O         84.18618       76.58958       72.54748
O         82.88600       78.39963       72.52731
H         83.78045       75.58589       74.74503
H         85.16896       77.83583       76.24297
H         85.60179       78.31283       73.95770
H         84.23572       79.35304       74.47026
N         81.89287       77.22948       75.69749
C         80.58728       77.31177       76.32476
C         79.55977       77.94410       75.41398
O         78.40314       77.98669       75.80969
H         81.94198       76.73925       74.79973
H         80.62219       77.86748       77.28582
H         80.25167       76.27626       76.54819
N         79.89225       78.46396       74.19293
C         78.93190       79.10842       73.30973
C         78.94215       78.49974       71.91434
O         79.82062       77.71460       71.58320
C         79.29982       80.60096       73.19926
C         79.35502       81.26749       74.55118
N         78.25102       81.35371       75.32761
O         80.41272       81.73248       74.94984
H         80.87093       78.46399       73.88699
H         77.90446       79.00489       73.72082
H         78.56937       81.13946       72.55988
H         80.30280       80.68071       72.71975
H         77.34981       80.97205       75.00704
H         78.29811       81.80631       76.25235
N         77.96638       78.86004       71.03483
C         77.91271       78.48528       69.63107
C         77.97110       76.99734       69.38207
O         77.24694       76.24293       70.01594
H         77.21132       79.47520       71.37512
H         78.73836       78.99051       69.08532
H         76.95796       78.86851       69.21105
N         78.77980       76.52089       68.39146
C         78.88343       75.10929       68.03951
C         79.61562       74.32161       69.11546
O         80.06001       74.88211       70.10749
C         79.60522       74.95685       66.67059
C         78.77210       75.48238       65.52135
C         77.54329       74.87161       65.20556
C         79.21948       76.55741       64.73607
C         76.77723       75.32978       64.13010
C         78.44911       77.01595       63.66038
C         77.22814       76.40498       63.35300
O         76.50140       76.85479       62.30959
H         79.30657       77.20387       67.82464
H         77.86377       74.67717       67.94223
H         79.80395       73.89266       66.43041
H         80.59298       75.46560       66.72510
H         77.18031       74.03178       65.78474
H         80.16390       77.03962       64.95267
H         75.83636       74.84497       63.89927
H         78.80370       77.84503       63.06125
H         75.65502       76.45568       62.06091
N         79.76804       72.97892       68.95019
C         80.43083       72.06741       69.86865
C         81.91119       72.49480       70.07284
O         82.08481       73.09404       71.32034
C         79.63564       71.88751       71.20385
C         80.20162       70.73267       72.07815
C         78.13017       71.69661       70.95977
C         80.09248       69.32921       71.47312
H         79.38066       72.54859       68.09701
H         80.41731       71.08891       69.34285
H         79.71927       72.82718       71.79342
H         79.66369       70.72650       73.05016
H         81.26990       70.91393       72.28928
H         77.92834       70.80694       70.33115
H         77.60087       71.59378       71.93123
H         77.70569       72.58665       70.44908
H         80.51231       68.59269       72.19001
H         79.03489       69.05518       71.28615
H         80.67101       69.24404       70.53186
N         82.82718       71.35753       69.87876
C         84.21800       71.63469       70.31906
C         85.28274       70.96037       69.45867
O         86.44824       71.28858       69.64221
C         84.42466       71.20008       71.78322
O         84.27048       69.81101       71.91998
H         82.80815       71.29809       68.83755
H         84.41229       72.72640       70.22130
H         83.73795       71.73293       72.46496
H         85.44663       71.47134       72.12554
H         83.31930       69.64200       72.14593
N         84.98557       70.03921       68.49348
C         85.99648       69.51048       67.58638
C         86.60028       70.63250       66.75240
O         85.96652       71.67288       66.63277
C         85.34912       68.49650       66.64496
H         84.02108       69.70113       68.38041
H         86.78454       69.02377       68.20091
H         84.97474       67.62262       67.22042
H         84.49911       68.96148       66.10119
H         86.07214       68.17125       65.88628
N         87.84121       70.56524       66.18594
C         88.78871       69.45961       66.30614
C         89.52389       69.25270       64.98590
O         89.99574       70.24033       64.43842
C         89.82023       69.83158       67.37381
H         88.18190       71.42612       65.72814
H         88.30601       68.52988       66.65710
H         90.35591       70.76724       67.10464
H         89.31238       69.98269       68.35046
H         90.56122       69.01132       67.49003
N         89.77191       68.03222       64.42493
C         89.38540       66.74205       64.98173
C         87.90399       66.50882       64.80396
O         87.24426       66.15473       65.77015
C         90.19351       65.61223       64.30823
C         89.96115       64.25793       64.99940
C         90.85636       63.19781       64.42915
O         90.77082       62.88397       63.25290
O         91.75804       62.58329       65.21927
H         90.35271       68.02704       63.57034
H         89.67248       66.71027       66.05705
H         91.27343       65.86172       64.41043
H         89.95241       65.54455       63.22418
H         88.90242       63.94030       64.88930
H         90.18563       64.36196       66.08412
N         87.32057       66.68746       63.58336
C         85.90159       66.52839       63.33640
H         85.34287       66.22710       64.24671
H         85.48489       67.49407       62.97731
H         85.74571       65.75994       62.55135
H         87.90507       66.98058       62.78586
Ca        83.23540       75.05514       71.19733
O         86.09859       74.41464       71.57213
H         86.26693       75.15438       72.20822
H         85.99835       74.85934       70.69392
O         83.44700       75.14552       68.12132
H         83.39869       74.25494       67.69158
H         84.41078       75.28151       68.30438
O         82.40249       78.25553       69.35466
H         83.27191       77.98548       68.96513
H         82.31623       79.21524       69.12624

Ca 1.0



