%chk=apoCaM-CA-Ng.loop3.water5.frame274.chk
%nprocshared=20
%mem=10GB
%nosave
#b3lyp/svp scf=(tight,noincore,xqc) Test 
#IOP(5/87=12) Density=Current Pop=(MK,readradii) iop(6/33=2) iop(6/42=6)

apoCaM-CA-Ng.loop3.water5.frame274 

   0  1 
C         31.09892       25.53874       10.83734
C         31.34705       24.27249       10.06972
O         31.04569       24.23580        8.88786
H         30.01223       25.77016       10.82041
H         31.41404       25.44069       11.89792
H         31.65886       26.37700       10.37473
N         31.88606       23.18524       10.69145
C         32.08918       21.87212       10.07977
C         30.74998       21.25157        9.69283
O         30.62351       20.68871        8.61340
C         33.07415       21.93903        8.88769
C         34.37043       22.59818        9.26537
O         34.72917       23.61582        8.69327
O         35.14376       22.07063       10.23269
H         32.14418       23.27304       11.68665
H         32.52992       21.21691       10.86427
H         32.61322       22.50516        8.04920
H         33.28741       20.91225        8.52070
N         29.67784       21.38883       10.52824
C         28.32321       20.90662       10.23287
C         27.78349       21.33813        8.86869
O         26.80111       20.75963        8.42390
C         27.31719       21.38932       11.31824
C         27.32285       22.93337       11.48137
C         26.18998       23.44475       12.38227
C         26.31729       24.95466       12.67668
N         27.38143       25.24045       13.64586
H         29.84324       21.88025       11.41642
H         28.36622       19.79542       10.21394
H         27.57034       20.93549       12.30062
H         26.29839       21.04135       11.03802
H         27.21074       23.43324       10.49492
H         28.29356       23.24047       11.90675
H         26.15139       22.89314       13.34547
H         25.23708       23.26469       11.83798
H         25.35848       25.31244       13.11137
H         26.49031       25.51884       11.73244
H         27.44072       26.27329       13.79662
H         27.15198       24.78757       14.56107
H         28.31284       24.90524       13.31667
N         28.32866       22.37203        8.17598
C         27.83090       22.83384        6.88949
C         28.06006       21.77877        5.81567
O         29.13261       21.19255        5.76496
C         28.51311       24.16912        6.53003
C         27.83911       24.85761        5.37959
O         27.83170       24.35159        4.27394
O         27.22848       26.04258        5.57024
H         29.09653       22.89338        8.60753
H         26.74482       23.05874        6.99387
H         29.59509       24.02210        6.32253
H         28.41752       24.84695        7.40629
N         27.09509       21.53476        4.88717
C         27.19270       20.54661        3.82481
C         28.45873       20.65745        3.00382
O         29.14105       19.64980        2.87656
H         26.23332       22.09518        4.92581
H         26.31480       20.66329        3.15197
H         27.14014       19.52686        4.26624
N         28.85111       21.83409        2.42996
C         30.05060       21.93517        1.59674
C         31.20800       22.65986        2.27145
O         32.28796       22.63247        1.69640
C         29.72279       22.55885        0.21938
C         29.41183       24.04125        0.27824
N         30.17391       24.93294       -0.39937
O         28.46407       24.44272        0.93311
H         28.28235       22.67121        2.59795
H         30.42990       20.90966        1.39591
H         28.86630       22.01732       -0.23704
H         30.60055       22.40780       -0.44629
H         30.97630       24.62432       -0.96732
H         29.95934       25.94072       -0.35981
N         31.08909       23.32175        3.46378
C         32.22749       23.96613        4.11143
C         32.10452       25.46700        4.07982
O         31.70532       25.99812        3.05335
H         30.17327       23.38827        3.92584
H         33.17293       23.72838        3.58180
H         32.34587       23.58438        5.14866
N         32.56731       26.23229        5.11242
C         32.57409       27.69279        5.04018
C         31.17811       28.26140        5.23338
O         30.25272       27.51535        5.52283
C         33.55573       28.30902        6.06664
C         34.99610       27.90023        5.83645
C         35.73736       27.30083        6.86891
C         35.62611       28.14642        4.60079
C         37.07973       26.95839        6.67118
C         36.96392       27.79261        4.40251
C         37.69691       27.20282        5.43586
O         38.99113       26.88287        5.23264
H         33.00298       25.76362        5.92201
H         32.92132       27.99361        4.02854
H         33.22753       28.04763        7.09666
H         33.53249       29.41531        5.98109
H         35.28316       27.11180        7.83319
H         35.08923       28.61510        3.78679
H         37.64065       26.50829        7.48041
H         37.43391       27.98542        3.44576
H         39.53927       26.48687        5.92504
N         30.96582       29.60066        5.07562
C         29.66357       30.24401        5.20838
C         29.30655       30.88434        3.87367
O         28.25806       30.56549        3.33447
C         29.66479       31.29703        6.35910
C         30.15266       30.66516        7.69005
C         28.24285       31.87842        6.54328
C         30.28467       31.67371        8.83619
H         31.77049       30.19704        4.83495
H         28.88386       29.48990        5.46278
H         30.36579       32.11608        6.08381
H         31.16066       30.22454        7.53952
H         29.46141       29.85037        7.99909
H         27.53749       31.08768        6.87646
H         28.23304       32.70680        7.27870
H         27.84095       32.29457        5.60630
H         30.98870       32.48530        8.55419
H         29.30675       32.11587        9.11316
H         30.67974       31.15923        9.73705
N         30.14297       31.77995        3.26255
C         29.80444       32.41276        1.98769
C         28.70922       33.45904        2.15015
O         28.14523       33.87918        1.14948
C         31.03940       33.05460        1.34512
O         32.02069       32.07494        1.14284
H         31.05237       31.99460        3.69714
H         29.44862       31.61478        1.29678
H         31.43411       33.85235        2.01351
H         30.74939       33.49367        0.36344
H         32.77179       32.52717        0.67892
N         28.35002       33.91485        3.38541
C         27.24494       34.82017        3.66243
C         25.93636       34.24211        3.15052
O         25.14065       34.96532        2.56772
C         27.52494       36.23217        3.12754
H         28.86936       33.58177        4.20647
H         27.15906       34.89946        4.76980
H         27.60179       36.23318        2.02054
H         26.70716       36.92298        3.42591
H         28.47585       36.61637        3.55300
N         25.67467       32.91169        3.30228
C         24.44844       32.28000        2.83504
C         23.81681       31.46934        3.94549
O         24.43632       31.28507        4.98454
C         24.77063       31.37985        1.63992
H         26.39167       32.30990        3.73085
H         23.71849       33.04990        2.50629
H         25.21421       31.98981        0.82391
H         25.50252       30.59588        1.92572
H         23.85237       30.89150        1.25196
N         22.55468       30.96628        3.79361
C         21.88688       30.13997        4.79639
C         21.88312       30.86304        6.13029
O         22.37834       30.33752        7.11960
C         22.56500       28.75298        4.85293
C         22.41447       28.01563        3.51071
C         23.37189       26.87151        3.42782
O         24.31167       26.89974        2.46311
O         23.35054       25.96847        4.24881
H         22.03278       31.19043        2.93345
H         20.82801       29.98348        4.49200
H         22.12463       28.11883        5.65428
H         23.64107       28.89688        5.08725
H         22.67015       28.69736        2.67194
H         21.36467       27.67697        3.37286
N         21.36658       32.11821        6.20828
C         21.39771       32.88860        7.43050
H         20.94929       33.88936        7.25599
H         20.82372       32.36706        8.22423
H         22.45021       33.02699        7.76060
H         20.96367       32.55306        5.36395
Ca        26.14116       25.60080        2.44416
O         26.86148       27.36869        0.03172
H         26.14424       26.98594       -0.53373
H         26.96241       28.29979       -0.28922
O         25.70799       23.78278        0.31558
H         24.79268       23.42628        0.43380
H         25.91424       23.64513       -0.64198
O         28.86023       27.52474        2.70464
H         29.40068       26.78026        2.34335
H         28.56870       27.20533        3.59391
O         24.61499       23.39352        3.48704
H         24.08192       22.63816        3.83846
H         24.03627       23.80804        2.80006
O         26.09720       28.46229        3.91459
H         26.32542       29.24788        4.46986
H         26.43586       28.67941        3.00993

Ca 1.0



