%chk=apoCaM-CA-Ng.loop1.water3.frame234.chk
%nprocshared=20
%mem=10GB
%nosave
#b3lyp/svp scf=(tight,noincore,xqc) Test 
#IOP(5/87=12) Density=Current Pop=(MK,readradii) iop(6/33=2) iop(6/42=6)

apoCaM-CA-Ng.loop1.water3.frame234 

   0  1 
C         39.75071       16.03776      108.39797
C         38.63605       15.43552      109.20032
O         37.90538       16.15428      109.86702
H         40.72033       15.60209      108.71715
H         39.59110       15.80600      107.32200
H         39.78335       17.13962      108.52262
N         38.43149       14.09489      109.14358
C         37.31149       13.42087      109.78604
C         37.48710       13.23933      111.30364
O         36.65660       12.56319      111.87709
C         37.06406       12.05231      109.09774
C         36.70562       12.16991      107.63643
O         37.50310       12.61611      106.82823
O         35.49689       11.75360      107.20896
H         39.05454       13.54532      108.53118
H         36.37848       13.99821      109.60813
H         36.18754       11.57841      109.56839
H         37.94391       11.38443      109.21982
N         38.48357       13.80641      112.04707
C         38.63264       13.54505      113.48609
C         38.28060       14.74408      114.35136
O         38.71444       15.83632      114.01468
C         40.06194       13.07934      113.81099
C         40.27222       11.61300      113.41182
C         41.56790       11.06314      114.02493
C         41.64830        9.52699      113.98340
N         40.64909        8.89580      114.85807
H         39.15728       14.44372      111.60154
H         37.97200       12.73627      113.80432
H         40.17499       13.11791      114.91532
H         40.82995       13.75863      113.38134
H         40.25100       11.47448      112.30932
H         39.42500       11.04843      113.83208
H         41.64563       11.35831      115.09519
H         42.42838       11.51223      113.48409
H         42.65700        9.23682      114.35047
H         41.53701        9.15763      112.94116
H         40.72512        9.27441      115.83120
H         39.67753        9.03651      114.50453
H         40.82389        7.86634      114.89105
N         37.58905       14.64895      115.54454
C         37.03747       13.44462      116.19825
C         38.10558       12.39156      116.45599
O         38.06354       11.33618      115.84042
C         35.78484       12.88318      115.48139
C         34.66811       13.87846      115.44496
O         34.81839       15.08947      116.01335
O         33.63441       13.60763      114.85542
H         37.47119       15.52633      116.07528
H         36.63960       13.72738      117.19708
H         35.41877       11.98535      116.02465
H         35.99842       12.59087      114.44432
N         39.07658       12.55377      117.39869
C         39.08376       13.66027      118.34784
C         40.16057       13.51573      119.40870
O         41.04141       12.68010      119.26218
H         39.76822       11.79429      117.49317
H         38.11433       13.61644      118.88791
H         39.17938       14.63919      117.83284
N         40.13672       14.23136      120.57052
C         39.12284       15.21875      120.93090
C         38.10066       14.60623      121.86978
O         38.47308       13.90267      122.79916
C         39.74468       16.49592      121.53996
C         40.44767       16.29246      122.85929
O         41.45534       15.60887      122.93371
O         39.97892       16.89894      123.96683
H         40.83993       13.97993      121.27967
H         38.58506       15.56957      120.02460
H         38.91626       17.22104      121.70482
H         40.45148       16.95375      120.81565
N         36.77568       14.87268      121.69505
C         35.73013       14.31761      122.53475
C         35.55938       12.84673      122.26455
O         35.67283       12.04361      123.17913
H         36.49030       15.52514      120.94887
H         34.76496       14.80625      122.27898
H         35.94455       14.52690      123.60610
N         35.27108       12.43568      120.99867
C         35.05825       11.04915      120.60996
C         36.15744       10.64324      119.65398
O         36.35805       11.30921      118.64956
C         33.67313       10.88609      119.94691
C         32.54282       11.19467      120.93265
O         33.52745        9.56245      119.49723
H         35.20538       13.15164      120.25751
H         35.08894       10.37474      121.49473
H         33.61352       11.59232      119.08339
H         32.94105        9.58857      118.69622
H         32.58663       10.49554      121.79596
H         32.61576       12.23681      121.30708
H         31.56143       11.06985      120.42813
N         36.90461        9.53442      119.91016
C         38.01836        9.09712      119.07393
C         37.57406        8.26157      117.87460
O         38.43784        7.76538      117.16369
C         39.16882        8.49244      119.94611
C         38.82478        7.22805      120.77968
C         39.69051        9.57941      120.90765
C         38.44720        6.00585      119.95127
H         36.67091        8.97835      120.74338
H         38.48450        9.98964      118.60161
H         40.01344        8.23570      119.26838
H         38.01949        7.43365      121.51446
H         39.72976        6.94679      121.36277
H         40.56718        9.20937      121.48005
H         40.01375       10.47651      120.34034
H         38.90418        9.88665      121.63062
H         37.50130        6.17203      119.40630
H         39.26055        5.75923      119.23667
H         38.29614        5.13919      120.62935
N         36.25849        8.16333      117.51634
C         35.79064        7.51667      116.29605
C         35.40591        8.60084      115.30383
O         34.63359        9.48746      115.64156
C         34.59949        6.57754      116.58555
C         35.00766        5.42435      117.50254
O         34.12389        6.02721      115.38218
H         35.54559        8.65477      118.06968
H         36.59627        6.89799      115.84041
H         33.78325        7.14350      117.09513
H         33.43317        6.64702      115.02823
H         35.35999        5.80667      118.48116
H         34.13558        4.76015      117.68043
H         35.81658        4.82455      117.03071
N         35.94775        8.58580      114.05442
C         35.78202        9.63645      113.04767
C         34.31518        9.94047      112.67887
O         33.40835        9.31733      113.21014
C         36.66334        9.29868      111.80822
C         36.20713        8.05305      111.04053
O         37.99840        9.13479      112.22149
H         36.57242        7.79685      113.82919
H         36.19512       10.56714      113.48120
H         36.61555       10.14681      111.11176
H         38.58270        9.42343      111.47155
H         36.25901        7.14300      111.67168
H         35.16868        8.18284      110.67169
H         36.87023        7.90170      110.16142
N         34.02921       10.90785      111.75065
C         32.69342       11.30744      111.31414
C         32.52268       12.85108      111.28172
O         31.45074       13.31014      110.91550
C         32.48908       10.67231      109.91803
C         31.07301       10.82821      109.33446
C         30.86444       10.02524      108.03966
C         31.78128       10.47632      106.89062
N         31.47035        9.74884      105.66088
H         34.80326       11.33712      111.24743
H         31.92764       10.87662      111.99553
H         32.67857        9.58038      110.02612
H         33.24516       11.08898      109.21948
H         30.84891       11.89070      109.11732
H         30.33889       10.45520      110.08175
H         29.80714       10.16680      107.72590
H         31.02263        8.94280      108.24022
H         32.84441       10.29091      107.15450
H         31.64528       11.56607      106.71309
H         32.11408       10.06957      104.90192
H         31.60203        8.72143      105.80606
H         30.48412        9.94121      105.37035
N         33.51687       13.71747      111.65091
C         33.41521       15.18018      111.55818
C         33.29715       15.64112      110.11762
O         34.15715       15.32182      109.30828
C         34.65680       15.84241      112.20706
C         34.76761       17.37816      112.04699
C         33.53638       18.19273      112.39135
O         32.97560       18.18460      113.61797
O         33.05376       18.91900      111.53725
H         34.38923       13.33481      112.02742
H         32.53168       15.52562      112.13837
H         35.58585       15.41190      111.77197
H         34.65739       15.57987      113.27795
H         35.02586       17.59179      110.98571
H         35.62444       17.72712      112.66302
N         32.28422       16.47437      109.75180
C         32.19333       17.04647      108.42651
H         31.31997       17.73138      108.37062
H         33.10974       17.63807      108.20893
H         32.07684       16.24579      107.66820
H         31.57822       16.75510      110.44914
Ca        33.60549       16.77351      115.22461
O         30.89270       18.46159      116.52326
H         30.25852       18.44717      115.76293
H         31.48641       19.23172      116.33691
O         30.81654       15.48834      115.36585
H         31.08179       15.40452      114.41548
H         31.36241       14.81013      115.83736
O         32.14732       16.02740      118.44141
H         31.24481       16.36198      118.67437
H         32.22882       15.17109      118.93198

Ca 1.0



