%chk=apoCaM-CA-Ng.loop1.water4.frame350.chk
%nprocshared=20
%mem=10GB
%nosave
#b3lyp/svp scf=(tight,noincore,xqc) Test 
#IOP(5/87=12) Density=Current Pop=(MK,readradii) iop(6/33=2) iop(6/42=6)

apoCaM-CA-Ng.loop1.water4.frame350 

   0  1 
C         54.73930       81.98139       46.90544
C         54.40692       83.43035       47.09448
O         55.21548       84.16677       47.63944
H         55.74370       81.74858       47.31777
H         53.98204       81.35622       47.42288
H         54.73238       81.73899       45.82148
N         53.21611       83.91128       46.64550
C         52.82323       85.31331       46.74367
C         52.52088       85.76309       48.17651
O         52.12995       86.90728       48.31344
C         51.57814       85.59697       45.86233
C         51.83458       85.38383       44.39097
O         52.14342       84.16411       43.91249
O         51.74158       86.32258       43.61519
H         52.58476       83.24980       46.16873
H         53.63906       85.94931       46.33449
H         51.29312       86.66578       45.98371
H         50.71971       84.97233       46.19042
N         52.66250       84.97436       49.28612
C         52.27018       85.42244       50.62644
C         53.46541       85.61183       51.54650
O         54.32433       84.74105       51.53518
C         51.31948       84.40197       51.28454
C         49.96584       84.28915       50.57188
C         48.96536       83.54043       51.47036
C         47.55208       83.45293       50.87640
N         47.48963       82.55069       49.72752
H         53.03948       84.02173       49.19852
H         51.73402       86.37373       50.56071
H         51.12862       84.75185       52.32052
H         51.79646       83.39996       51.36379
H         50.10418       83.79284       49.58832
H         49.56164       85.30929       50.40466
H         48.87903       84.11355       52.42086
H         49.33636       82.52182       51.71559
H         47.19406       84.46779       50.59207
H         46.87102       83.06258       51.66521
H         47.78757       81.59034       50.01683
H         46.50133       82.50459       49.38938
H         48.09421       82.89336       48.94866
N         53.58939       86.63541       52.46321
C         52.67864       87.76108       52.73902
C         51.26102       87.31576       53.12546
O         50.41085       87.18562       52.25873
C         52.72692       88.84525       51.64919
C         54.06808       89.53423       51.58190
O         54.99483       89.33800       52.54357
O         54.31242       90.29343       50.65923
H         54.42244       86.59499       53.07206
H         53.08072       88.29609       53.61840
H         51.97526       89.63178       51.84941
H         52.50791       88.37630       50.68042
N         50.89694       87.09347       54.42246
C         51.80033       87.35316       55.52660
C         51.23896       87.05432       56.89762
O         50.15298       86.50444       57.00910
H         49.93477       86.77247       54.61056
H         52.01587       88.44307       55.50480
H         52.73367       86.76206       55.39988
N         51.90895       87.43569       58.02520
C         53.17276       88.17467       58.00979
C         52.91894       89.63118       58.34884
O         51.79576       89.99023       58.67969
C         54.22576       87.48477       58.89806
C         53.80722       87.37036       60.33773
O         53.57698       88.47622       61.07034
O         53.68898       86.27041       60.85398
H         51.45618       87.26686       58.93735
H         53.61054       88.19598       56.99387
H         55.18671       88.03956       58.84811
H         54.40655       86.46609       58.48741
N         53.91330       90.55195       58.20540
C         53.69651       91.97563       58.40505
C         52.78376       92.61265       57.36299
O         52.51270       93.79682       57.50459
H         54.85822       90.23825       57.93723
H         54.67276       92.50405       58.34889
H         53.28071       92.13437       59.42371
N         52.29119       91.92320       56.28790
C         51.42274       92.51237       55.27087
C         50.10227       91.77130       55.26116
O         50.09986       90.55940       55.08154
C         52.08731       92.43098       53.87993
C         53.40596       93.20803       53.84601
O         51.21318       92.97122       52.92121
H         52.54401       90.93403       56.15661
H         51.22914       93.58692       55.48595
H         52.28908       91.35824       53.64890
H         51.47182       92.58686       52.04328
H         53.22840       94.28005       54.07866
H         54.12376       92.79208       54.58273
H         53.85970       93.13270       52.83529
N         48.92936       92.43974       55.45959
C         47.64464       91.75051       55.53472
C         47.27031       91.03514       54.23737
O         46.36463       90.21701       54.28576
C         46.48115       92.69789       55.98021
C         46.18372       93.79865       54.92259
C         46.77173       93.29749       57.37118
C         44.95723       94.65312       55.25266
H         48.97000       93.45800       55.60991
H         47.75266       90.96658       56.31907
H         45.56801       92.06943       56.08315
H         45.97319       93.31439       53.94729
H         47.06011       94.46691       54.78993
H         45.89875       93.86395       57.75282
H         46.97515       92.48661       58.10159
H         47.64373       93.98293       57.34961
H         44.05909       94.01015       55.37086
H         45.11157       95.24720       56.17556
H         44.77147       95.36720       54.42238
N         47.85617       91.34191       53.03688
C         47.43569       90.72158       51.77847
C         48.61599       90.23739       50.94481
O         49.75883       90.49992       51.27622
C         46.53245       91.69440       50.97885
C         47.22588       93.01814       50.64309
O         45.37137       91.97555       51.71676
H         48.55261       92.09736       52.99664
H         46.82591       89.81709       51.99422
H         46.23726       91.22639       50.01138
H         44.79136       91.17098       51.65957
H         46.53522       93.65931       50.05596
H         47.49624       93.57023       51.56782
H         48.14160       92.84127       50.04159
N         48.37142       89.46646       49.84557
C         49.40597       88.86964       49.00307
C         50.17982       89.90316       48.19329
O         49.56031       90.72468       47.53324
C         48.78901       87.79702       48.05427
C         47.81842       88.33544       46.98957
O         48.12710       86.83353       48.83347
H         47.38912       89.22913       49.64989
H         50.10691       88.30162       49.65357
H         49.63616       87.31302       47.51888
H         48.11335       85.99063       48.30816
H         46.95085       88.85003       47.44929
H         48.32884       89.02719       46.29055
H         47.43678       87.48911       46.37971
N         51.54599       89.85478       48.13254
C         52.35588       90.65251       47.21504
C         53.84187       90.37703       47.45566
O         54.55268       91.29417       47.84152
C         51.97376       90.31685       45.74453
C         52.66916       91.19508       44.69538
C         52.15584       90.82815       43.29241
C         52.71025       91.76361       42.21229
N         52.16354       91.41822       40.89890
H         52.03318       89.18847       48.73508
H         52.14805       91.72746       47.41581
H         50.88707       90.46816       45.60246
H         52.17664       89.24602       45.52838
H         53.77246       91.06446       44.73971
H         52.42267       92.25818       44.90745
H         51.04653       90.90995       43.27973
H         52.43513       89.77685       43.05743
H         53.81983       91.69411       42.18388
H         52.42705       92.81178       42.45661
H         52.44549       90.44643       40.63442
H         51.11942       91.48813       40.91303
H         52.53327       92.08627       40.18483
N         54.37814       89.13943       47.21698
C         55.79144       88.81064       47.38602
C         56.40812       88.60681       46.01722
O         55.94251       87.75034       45.27668
C         55.95747       87.50538       48.20958
C         57.44377       87.12184       48.43235
C         58.05507       88.04647       49.43273
O         58.90719       88.86266       49.12217
O         57.59050       87.97344       50.68716
H         53.76585       88.39988       46.84577
H         56.32073       89.63485       47.91276
H         55.46959       86.68572       47.64915
H         55.43448       87.58840       49.18895
H         57.99883       87.13476       47.47139
H         57.51643       86.09295       48.84643
N         57.48721       89.34269       45.63151
C         58.15846       89.16279       44.36024
H         59.21580       88.87726       44.54364
H         57.68957       88.36967       43.74025
H         58.13374       90.11492       43.79216
H         57.87099       90.05265       46.27322
Ca        57.16554       89.63844       52.09328
O         59.92311       90.93913       53.11460
H         60.71649       90.51899       53.53213
H         60.25607       91.29368       52.25233
O         56.78274       92.02374       53.97667
H         56.57727       92.78363       53.37595
H         56.81549       92.42283       54.88209
O         57.89719       91.69628       50.02804
H         57.92451       92.41990       49.35362
H         58.84137       91.41606       50.12952
O         59.97120       87.67528       52.75967
H         59.74220       86.96346       52.11073
H         60.92821       87.86502       52.59099

Ca 1.0



