%chk=apoCaM-CA-Ng.loop2.water5.frame1044.chk
%nprocshared=20
%mem=10GB
%nosave
#b3lyp/svp scf=(tight,noincore,xqc) Test 
#IOP(5/87=12) Density=Current Pop=(MK,readradii) iop(6/33=2) iop(6/42=6)

apoCaM-CA-Ng.loop2.water5.frame1044 

   -2  1 
C         25.66923       57.70258       61.00118
C         25.29991       59.16540       60.89723
O         24.70791       59.50961       59.88490
H         26.27006       57.40926       61.87536
H         24.74415       57.08929       61.00587
H         26.26984       57.42511       60.10936
N         25.58274       60.11800       61.83902
C         26.20973       59.89798       63.14019
C         27.56603       60.59318       63.19675
O         28.01091       61.11082       62.18047
C         25.21017       60.29365       64.24939
C         24.99447       61.76454       64.38604
O         25.97498       62.51384       64.90852
O         23.91466       62.26984       64.12501
H         25.30382       61.08909       61.62328
H         26.40572       58.83196       63.32243
H         25.55495       59.92469       65.23805
H         24.24397       59.78826       64.02917
N         28.30479       60.59562       64.34589
C         29.69106       61.05349       64.43791
C         29.93980       62.52214       64.07551
O         31.10759       62.88828       64.04600
C         30.57744       60.13255       63.57701
H         27.89611       60.17634       65.19385
H         30.03481       60.91277       65.48687
H         31.65205       60.37523       63.72163
H         30.42899       59.07377       63.88125
H         30.34411       60.22593       62.49651
N         28.94455       63.42265       63.79354
C         29.21972       64.76971       63.29488
C         28.85421       65.87119       64.27330
O         27.70587       66.01884       64.63689
C         28.59327       64.95217       61.89858
C         27.08925       64.90677       61.66649
O         26.72591       64.90429       60.50143
O         26.11286       64.91216       62.60774
H         27.96568       63.14248       63.87620
H         30.31197       64.87114       63.11466
H         29.02651       64.13592       61.27769
H         28.95794       65.91246       61.47253
N         29.81701       66.71789       64.72744
C         29.56542       67.83297       65.62405
C         28.68433       68.90130       65.01015
O         27.85382       69.45791       65.71369
H         30.79185       66.58048       64.41976
H         30.54332       68.31900       65.83073
H         29.15828       67.48325       66.59832
N         28.84935       69.26908       63.70827
C         28.19715       70.41721       63.08695
C         27.17395       69.98689       62.04985
O         27.53037       69.28911       61.11035
C         29.29549       71.27438       62.41926
C         28.73967       72.41677       61.60482
N         28.95105       72.46693       60.26670
O         28.08850       73.29401       62.15102
H         29.50960       68.72811       63.12875
H         27.67924       71.04086       63.84935
H         29.89029       70.61783       61.74596
H         29.98699       71.66971       63.19442
H         29.49058       71.73031       59.78689
H         28.56818       73.23826       59.70135
N         25.88495       70.44035       62.13493
C         24.87353       70.19748       61.11322
C         24.35773       71.50628       60.53010
O         24.76558       72.56143       60.99670
H         25.61086       71.02160       62.94269
H         24.02327       69.64183       61.56288
H         25.29990       69.59198       60.28720
N         23.47880       71.55620       59.48287
C         22.95277       70.39237       58.77679
C         23.50093       70.37315       57.36393
O         23.23468       71.28532       56.59278
C         21.40345       70.37159       58.74269
C         20.78144       70.12959       60.12255
O         20.87726       71.53237       58.14346
H         23.21238       72.48901       59.12914
H         23.27038       69.45524       59.27444
H         21.09360       69.50473       58.11718
H         20.91415       72.26913       58.80768
H         19.67655       70.06411       60.02119
H         21.14942       69.16748       60.53891
H         21.03356       70.95007       60.82529
N         24.29086       69.33858       56.96339
C         24.82189       69.21100       55.61178
C         23.66181       68.94959       54.64371
O         22.91425       68.01990       54.91346
C         25.86570       68.05379       55.54445
C         27.07758       68.28082       56.49887
C         26.36020       67.82298       54.10327
C         27.87332       69.57095       56.25565
H         24.51946       68.60868       57.65420
H         25.36622       70.13288       55.38228
H         25.36955       67.10967       55.86402
H         27.77147       67.41849       56.39614
H         26.73807       68.29394       57.55521
H         25.51811       67.53820       53.43846
H         26.83576       68.73273       53.68445
H         27.08776       66.98404       54.08201
H         27.25581       70.47060       56.45401
H         28.73639       69.60736       56.95249
H         28.26589       69.61667       55.22171
N         23.41155       69.66647       53.50060
C         24.21894       70.75788       52.95733
C         24.72044       70.37921       51.55547
O         24.37897       69.31073       51.06378
C         23.35392       72.04131       52.97297
C         24.10081       73.35450       52.95830
O         25.43778       73.41473       53.11128
O         23.46602       74.39567       52.92047
H         22.57452       69.40113       52.95573
H         25.10717       70.93325       53.57325
H         22.77739       72.06824       53.92362
H         22.62070       71.98937       52.13905
N         25.58183       71.18685       50.87697
C         26.17327       70.86825       49.57988
C         27.20086       71.94771       49.23724
O         26.79059       73.09634       49.11217
C         25.12158       70.82777       48.44232
C         25.79115       70.46216       47.13284
C         26.14670       71.46177       46.20856
C         26.10460       69.12237       46.84517
C         26.81320       71.12628       45.02570
C         26.75515       68.78965       45.65169
C         27.11433       69.79127       44.74582
H         25.89275       72.04783       51.33399
H         26.64637       69.86827       49.64592
H         24.65216       71.83337       48.36362
H         24.29622       70.11163       48.63917
H         25.93241       72.50278       46.41457
H         25.84048       68.33682       47.54189
H         27.10126       71.90226       44.32786
H         26.98734       67.75567       45.43112
H         27.62860       69.53368       43.82845
N         28.53001       71.69372       49.03132
C         29.19220       70.39667       49.10617
C         29.12638       69.72793       50.46965
O         28.50361       70.25222       51.38156
C         30.64604       70.71518       48.73522
C         30.47600       71.87524       47.78177
C         29.43294       72.70300       48.51957
H         28.73428       69.73800       48.33477
H         31.17594       71.12645       49.62184
H         31.22328       69.85079       48.34394
H         31.40715       72.42565       47.53311
H         30.02147       71.48414       46.84143
H         29.87870       73.25174       49.37864
H         28.95290       73.40971       47.80715
N         29.73196       68.52067       50.65109
C         29.59389       67.72688       51.86653
C         30.07560       66.29335       51.62493
O         30.95676       65.82376       52.32976
C         30.25849       68.40502       53.10471
C         31.77770       68.66537       53.02278
C         32.13535       69.71381       52.01353
O         32.88365       69.44753       51.08672
O         31.65724       70.96587       52.14852
H         30.25248       68.12029       49.85662
H         28.51133       67.62953       52.09511
H         30.07365       67.74489       53.98085
H         29.75493       69.36728       53.32968
H         32.33043       67.72869       52.81186
H         32.12331       69.03376       54.01263
N         29.52189       65.49064       50.66807
C         28.44058       65.88610       49.78634
H         27.55238       66.19288       50.37645
H         28.74864       66.70831       49.11274
H         28.15573       65.03055       49.13851
H         29.87667       64.52607       50.57445
Ca        25.33358       65.07423       64.74860
O         25.11811       68.13149       64.17468
H         25.52945       68.25339       65.06596
H         24.17919       68.42049       64.29604
O         22.86039       65.92587       63.32120
H         23.35035       66.34860       62.57184
H         22.09589       65.46503       62.89393
O         22.76845       65.89648       66.37715
H         22.19987       66.69281       66.22684
H         22.46033       65.53070       67.24381
O         26.01673       66.80521       67.38942
H         26.03645       66.34300       68.26448
H         25.20004       67.36404       67.42337
O         24.80960       63.75004       67.62457
H         24.44498       64.31337       68.35259
H         24.95949       62.86694       68.04581

Ca 1.0



