%chk=apoCaM-CA-Ng.loop4.water4.frame994.chk
%nprocshared=20
%mem=10GB
%nosave
#b3lyp/svp scf=(tight,noincore,xqc) Test 
#IOP(5/87=12) Density=Current Pop=(MK,readradii) iop(6/33=2) iop(6/42=6)

apoCaM-CA-Ng.loop4.water4.frame994 

   -3  1 
C         58.17391      105.74986       79.98864
C         57.82857      107.20997       79.93636
O         58.50302      107.93858       79.22341
H         59.21472      105.62707       80.35594
H         57.49082      105.19201       80.66221
H         58.09829      105.31416       78.96931
N         56.77594      107.70902       80.65644
C         56.37044      109.11815       80.66984
C         55.87919      109.62112       79.31488
O         55.60739      110.80882       79.20326
C         57.51660      110.01118       81.20160
C         57.90897      109.61652       82.59382
O         57.00659      109.67571       83.59116
O         59.04806      109.25481       82.83088
H         56.23311      107.05929       81.24518
H         55.51226      109.23498       81.36835
H         57.18636      111.07085       81.23666
H         58.39984      109.96506       80.53086
N         55.74077      108.79377       78.24061
C         55.38093      109.27830       76.91372
C         53.90567      109.67872       76.90998
O         53.09345      108.78173       77.09305
C         55.61893      108.15927       75.83318
C         57.06861      107.58799       75.88762
C         55.31213      108.71258       74.42571
C         57.30905      106.40536       74.94725
H         55.91803      107.79127       78.36206
H         56.06236      110.11309       76.65451
H         54.92382      107.31512       76.04345
H         57.29499      107.19412       76.89523
H         57.80396      108.38318       75.66711
H         55.39549      107.92308       73.65330
H         54.27425      109.09853       74.36356
H         56.01423      109.53700       74.17539
H         58.33657      106.01470       75.10853
H         56.58715      105.58874       75.16363
H         57.22879      106.70310       73.88396
N         53.41937      110.93306       76.66356
C         54.16127      112.18220       76.51446
C         53.45740      113.25489       77.34065
O         52.25661      113.42416       77.17071
C         54.16996      112.59824       75.03428
C         54.90405      113.89748       74.83307
O         54.32843      114.85604       74.34490
O         56.19413      114.01343       75.20160
H         52.39299      111.00475       76.56836
H         55.21699      112.07877       76.83484
H         53.12671      112.69540       74.66038
H         54.68178      111.81242       74.43965
N         54.13578      114.04538       78.21945
C         53.47299      115.05505       79.03746
C         53.85272      116.47453       78.67755
O         53.37584      117.37364       79.35591
H         55.15768      113.93782       78.31123
H         53.73390      114.86542       80.10047
H         52.36757      114.99141       78.95158
N         54.69186      116.76814       77.64266
C         55.10526      118.12582       77.31529
C         54.72617      118.50736       75.89061
O         54.00734      119.48500       75.72833
C         56.60648      118.31566       77.66209
C         57.55053      117.19225       77.28516
O         57.79818      116.91709       76.12601
O         58.16314      116.49461       78.26073
H         55.09024      116.00492       77.07853
H         54.57929      118.86909       77.95799
H         56.65202      118.36929       78.77183
H         56.97239      119.29262       77.27652
N         55.20300      117.83218       74.81127
C         55.01029      118.27671       73.44105
C         56.30026      118.84438       72.88412
O         56.32021      119.20062       71.71515
H         55.80386      117.01359       74.95152
H         54.24478      119.07955       73.36605
H         54.66001      117.41725       72.83042
N         57.40958      118.99729       73.67517
C         58.66213      119.60414       73.25530
C         59.38946      118.78366       72.19703
O         60.38963      119.26263       71.68189
C         58.44076      121.09482       72.90175
C         57.79142      121.82037       74.10588
C         57.60170      123.30280       73.92756
N         57.03089      124.02163       74.92326
O         57.95696      123.86278       72.90115
H         57.37464      118.72910       74.66169
H         59.35516      119.61461       74.12754
H         57.79998      121.20768       72.00254
H         59.42687      121.56230       72.68776
H         58.42581      121.66926       75.00673
H         56.79023      121.38037       74.30500
H         56.72451      123.56060       75.79382
H         56.89174      125.03813       74.82814
N         59.00978      117.50036       71.90150
C         59.72698      116.63882       70.96155
C         60.34999      115.41912       71.63970
O         61.11326      114.73064       70.97460
C         58.77970      116.15824       69.82158
C         57.60753      115.29921       70.34530
C         58.23416      117.33990       69.01315
H         58.19815      117.09813       72.38475
H         60.57020      117.20390       70.50716
H         59.37247      115.52515       69.12397
H         57.98015      114.41473       70.90301
H         56.93623      115.87977       71.01159
H         56.99826      114.92413       69.49665
H         57.61639      118.00569       69.65073
H         59.07179      117.92675       68.58199
H         57.60299      116.96808       68.17746
N         60.01622      115.03287       72.90734
C         60.47580      113.78488       73.50912
C         61.01515      114.01626       74.91457
O         60.77681      115.06525       75.49857
C         59.26029      112.82901       73.52842
C         59.48804      111.51773       74.23185
N         58.76051      111.20252       75.32973
O         60.32830      110.73593       73.81275
H         59.32242      115.57485       73.43997
H         61.28740      113.32864       72.89939
H         58.94697      112.62102       72.48185
H         58.42175      113.35758       74.02667
H         58.04151      111.84574       75.69354
H         58.92083      110.31781       75.82805
N         61.76858      113.05100       75.51558
C         62.23819      113.13172       76.89311
C         63.22914      112.01939       77.17104
O         62.88322      110.85924       76.99013
C         61.04635      113.00701       77.87511
C         61.51123      112.98324       79.31564
C         62.22965      114.06612       79.84846
C         61.24924      111.86742       80.13135
C         62.69127      114.02848       81.16659
C         61.70470      111.83641       81.45253
C         62.43428      112.91498       81.97238
O         62.89409      112.89258       83.23960
H         62.02733      112.22263       74.95825
H         62.75227      114.10491       77.04580
H         60.49300      112.06822       77.64491
H         60.34091      113.85179       77.73574
H         62.44327      114.93518       79.24018
H         60.69962      111.01709       79.74658
H         63.25338      114.86584       81.55987
H         61.49501      110.97143       82.06841
H         62.74870      112.13748       83.82721
N         64.47241      112.30965       77.65620
C         65.45135      111.28459       77.98058
C         65.74871      111.33112       79.47412
O         66.44045      112.24966       79.89252
C         66.74193      111.49906       77.16114
C         66.48399      111.43674       75.64910
C         67.75152      111.67851       74.88082
O         68.18532      110.82413       74.12498
O         68.40840      112.84774       75.01066
H         64.72912      113.29432       77.82735
H         65.05970      110.29628       77.70639
H         67.48427      110.71660       77.43475
H         67.17317      112.49485       77.41116
H         65.74798      112.21462       75.35280
H         66.06803      110.43851       75.39005
N         65.23940      110.44060       80.38091
C         64.26487      109.39373       80.08400
C         64.84386      108.30364       79.20382
O         65.87316      107.73843       79.54661
C         63.72777      108.75378       81.38744
C         62.53402      107.83089       81.07795
C         61.94999      107.19691       82.30300
O         61.41803      107.95660       83.27608
O         61.89469      105.98097       82.39339
H         65.49685      110.58570       81.37074
H         63.39161      109.87757       79.59318
H         63.38032      109.55666       82.07138
H         64.53686      108.19183       81.90459
H         62.84959      107.02643       80.38022
H         61.73211      108.42436       80.58579
N         64.18305      107.92536       78.07311
C         64.63109      106.86577       77.19580
H         65.59202      106.42029       77.52653
H         63.86171      106.06510       77.17183
H         64.76049      107.27054       76.17090
H         63.29658      108.39161       77.82961
Ca        60.19868      106.92813       84.87676
O         62.72560      107.03550       86.29249
H         63.08482      106.11317       86.31354
H         62.77233      107.34519       87.23145
O         57.03059      106.74627       85.55363
H         56.68269      106.89212       86.46895
H         57.29287      107.64882       85.24434
O         59.32891      106.69308       87.78209
H         59.00846      107.60642       87.99061
H         60.21705      106.63538       88.21561
O         59.75703      109.72826       85.90904
H         59.92906      110.57032       85.41760
H         59.93577      109.95012       86.85713

Ca 1.0



