%chk=apoCaM-CA-Ng.loop2.water4.frame545.chk
%nprocshared=20
%mem=10GB
%nosave
#b3lyp/svp scf=(tight,noincore,xqc) Test 
#IOP(5/87=12) Density=Current Pop=(MK,readradii) iop(6/33=2) iop(6/42=6)

apoCaM-CA-Ng.loop2.water4.frame545 

   -2  1 
C         68.85145       40.19613       69.62096
C         68.13131       40.47551       68.33404
O         67.79689       41.62489       68.08493
H         69.79566       40.77903       69.65322
H         68.21004       40.49412       70.47688
H         69.09778       39.11834       69.72369
N         67.84518       39.46525       67.46490
C         67.13991       39.68343       66.20750
C         67.97142       40.57009       65.29853
O         69.09254       40.20148       64.97615
C         66.84702       38.33302       65.52163
C         66.00570       38.50632       64.28745
O         66.42394       38.14196       63.20040
O         64.77758       39.05239       64.37991
H         68.12444       38.50469       67.71911
H         66.16128       40.16210       66.43679
H         66.28570       37.67970       66.22424
H         67.80379       37.82392       65.26768
N         67.48082       41.75684       64.84088
C         68.26587       42.64580       63.98751
C         69.45920       43.20717       64.75437
O         69.39945       43.22013       65.97603
C         67.37947       43.80115       63.49763
H         66.51661       42.02262       65.09579
H         68.60003       42.05898       63.11406
H         66.50747       43.39626       62.94124
H         67.00497       44.39227       64.36129
H         67.92130       44.48781       62.82124
N         70.56642       43.74479       64.15829
C         70.84397       43.76498       62.72426
C         71.03675       42.34595       62.13791
O         71.29240       41.23736       62.96762
C         72.01528       44.72122       62.38235
C         73.34048       44.42683       63.02692
O         73.49404       43.39646       63.87383
O         74.29215       45.15450       62.79353
H         71.26301       44.17327       64.78713
H         69.98388       44.21068       62.18996
H         71.71734       45.74684       62.69090
H         72.15814       44.73651       61.27989
N         71.40081       42.23973       60.71450
C         71.14464       40.93302       60.08415
C         69.70660       40.45195       60.19871
O         68.90113       41.10504       60.84327
H         70.85575       42.95885       60.18384
H         71.81713       40.16881       60.53020
H         71.40588       41.03331       59.00957
N         69.28588       39.28434       59.63752
C         70.07380       38.44132       58.74646
C         70.67356       37.28848       59.51925
O         69.99315       36.67735       60.33171
C         69.19784       37.98397       57.56359
C         68.79347       39.17068       56.71608
N         67.49345       39.51152       56.55789
O         69.65950       39.83512       56.16539
H         68.32329       38.97320       59.84859
H         70.92266       39.00047       58.30403
H         68.30315       37.44457       57.94603
H         69.76828       37.28271       56.91664
H         66.74302       38.97369       57.01369
H         67.23700       40.32649       55.97976
N         71.97802       36.95048       59.30135
C         72.70425       35.94877       60.06467
C         74.07644       36.43205       60.52976
O         74.77151       35.63947       61.14928
H         72.47055       37.40343       58.51730
H         72.88190       35.07364       59.40334
H         72.11131       35.60321       60.93865
N         74.57451       37.66910       60.21534
C         75.95418       38.06421       60.49540
C         76.22395       38.21139       61.98221
O         75.64784       39.07900       62.62358
C         76.30194       39.38422       59.75250
C         77.70865       39.91875       60.07555
O         76.16364       39.20888       58.36383
H         73.99632       38.32937       59.67972
H         76.62592       37.28188       60.07591
H         75.58248       40.16583       60.06472
H         76.87486       38.58073       58.06777
H         78.48587       39.17129       59.81192
H         77.89386       40.85352       59.50575
H         77.79841       40.16261       61.15486
N         77.15534       37.41286       62.57361
C         77.62484       37.58803       63.94267
C         78.50135       38.82919       64.01437
O         79.46163       38.93460       63.26367
C         78.42072       36.33402       64.41540
C         79.05283       36.57303       65.81673
C         77.47354       35.11473       64.43905
C         79.89014       35.40272       66.32963
H         77.58555       36.66721       62.00565
H         76.75521       37.68315       64.63073
H         79.24531       36.13938       63.69407
H         78.26238       36.80591       66.55658
H         79.73973       37.44466       65.76876
H         76.66033       35.27080       65.18001
H         77.00915       34.94399       63.44654
H         78.01648       34.18490       64.69563
H         80.69583       35.16200       65.60435
H         80.35482       35.68340       67.29842
H         79.26563       34.50493       66.50730
N         78.25593       39.77212       64.96113
C         79.06385       40.96798       65.16657
C         79.74935       40.93422       66.52346
O         80.92124       41.27404       66.59208
C         78.17194       42.21902       65.08827
C         77.50976       42.35061       63.75091
O         78.17852       42.47060       62.73677
O         76.16804       42.34943       63.67045
H         77.45562       39.62021       65.58706
H         79.85296       41.07161       64.38751
H         78.78499       43.13002       65.26770
H         77.38866       42.17082       65.87244
N         79.05594       40.60481       67.65202
C         79.58501       40.73615       69.00825
C         78.43811       40.51235       69.99762
O         78.52492       39.61747       70.83091
C         80.79147       39.78123       69.25209
C         81.51116       40.07663       70.55348
C         82.11248       41.33418       70.75507
C         81.61501       39.10367       71.56410
C         82.79207       41.61523       71.94354
C         82.29896       39.38990       72.75276
C         82.88500       40.64454       72.94231
H         78.07703       40.31086       67.54496
H         79.93238       41.78258       69.13002
H         81.55205       39.89702       68.45558
H         80.43909       38.72655       69.21077
H         82.06146       42.09864       69.99062
H         81.17146       38.12478       71.43429
H         83.24984       42.58583       72.08799
H         82.37791       38.63876       73.52816
H         83.41439       40.86459       73.86098
N         77.29796       41.27765       69.94912
C         76.14575       41.10402       70.82504
C         75.50406       39.72782       70.76567
O         74.69546       39.42184       71.62976
C         75.12892       42.11864       70.28425
C         76.02195       43.21548       69.75569
C         77.11200       42.41170       69.06439
H         76.48867       41.33767       71.85770
H         74.62281       41.68447       69.38776
H         74.34676       42.42967       71.00712
H         75.52434       43.95940       69.09812
H         76.46912       43.73838       70.62990
H         76.75713       42.04047       68.08185
H         78.01368       43.04898       68.95406
N         75.75749       38.87712       69.73037
C         75.17612       37.54938       69.63222
C         75.73653       36.70123       70.76010
O         74.96421       36.16046       71.54049
C         75.49692       36.89231       68.26725
C         74.63986       37.33109       67.04822
C         74.71173       38.72146       66.45443
O         74.01046       38.92603       65.31407
O         75.36322       39.62156       66.95002
H         76.40231       39.17420       68.99096
H         74.06712       37.59406       69.72254
H         75.24928       35.81151       68.37728
H         76.58002       36.95464       68.04769
H         73.57156       37.14137       67.28978
H         74.91974       36.64439       66.22247
N         77.08232       36.56461       70.91980
C         77.65956       35.78788       71.99519
H         78.76793       35.85647       71.95804
H         77.31590       36.17994       72.97656
H         77.36344       34.72237       71.89617
H         77.72196       37.04546       70.26943
Ca        73.30820       40.63375       63.94630
O         72.20125       38.11484       62.94614
H         72.55802       37.35888       63.47671
H         71.26468       38.21466       63.25145
O         74.47788       42.89030       66.59929
H         73.80003       42.90515       67.32026
H         74.56433       41.93435       66.36171
O         71.89731       41.04947       66.36533
H         71.36091       40.22393       66.26660
H         71.31450       41.67358       66.86317
O         74.27232       42.07113       61.11233
H         74.15718       42.40257       60.18686
H         75.21761       42.26743       61.32439

Ca 1.0



