%chk=apoCaM-CA-Ng.loop4.water4.frame805.chk
%nprocshared=20
%mem=10GB
%nosave
#b3lyp/svp scf=(tight,noincore,xqc) Test 
#IOP(5/87=12) Density=Current Pop=(MK,readradii) iop(6/33=2) iop(6/42=6)

apoCaM-CA-Ng.loop4.water4.frame805 

   -3  1 
C         -2.09860       94.68005       77.83459
C         -3.35245       95.14840       78.52039
O         -3.79585       94.49159       79.45049
H         -1.26309       94.64628       78.56447
H         -2.25223       93.66475       77.41487
H         -1.80746       95.36229       77.00775
N         -3.96601       96.29980       78.12063
C         -5.16677       96.86990       78.73032
C         -4.93181       97.15449       80.20028
O         -5.74159       96.75334       81.02820
C         -6.40873       95.96334       78.51814
C         -6.71391       95.68855       77.07473
O         -7.56052       94.85599       76.79153
O         -5.99353       96.26033       76.09242
H         -3.54296       96.83344       77.34574
H         -5.36831       97.84593       78.23669
H         -7.30958       96.41733       78.98390
H         -6.22370       94.98645       79.01629
N         -3.81662       97.82556       80.61104
C         -3.59641       98.10000       82.02629
C         -4.49836       99.25671       82.45380
O         -4.77912      100.09596       81.60802
C         -2.10042       98.36761       82.38391
C         -1.56823       99.71670       81.83162
C         -1.22826       97.17580       81.93427
C         -0.16466      100.06172       82.33841
H         -3.10924       98.09922       79.91316
H         -3.86002       97.16399       82.55983
H         -2.04623       98.42249       83.49374
H         -2.22799      100.53673       82.18464
H         -1.57198       99.71971       80.72139
H         -1.62521       96.22765       82.35370
H         -1.20490       97.08957       80.82714
H         -0.18608       97.27619       82.29668
H          0.59248       99.34165       81.96965
H          0.12349      101.06998       81.97374
H         -0.15053      100.07455       83.44992
N         -4.97827       99.44066       83.71735
C         -4.81477       98.53394       84.84646
C         -6.19663       98.09691       85.32875
O         -7.19284       98.63262       84.85778
C         -4.02419       99.27928       85.94180
C         -3.69898       98.43362       87.13832
O         -3.01155       97.43209       87.01609
O         -4.15119       98.78760       88.35632
H         -5.53200      100.29662       83.88671
H         -4.24801       97.63258       84.55632
H         -4.60481      100.17191       86.26368
H         -3.06255       99.63479       85.51141
N         -6.34426       97.10628       86.25082
C         -7.65660       96.72530       86.74631
C         -7.56946       95.52286       87.64779
O         -7.88762       95.61745       88.82448
H         -5.51095       96.60989       86.59816
H         -8.32420       96.46171       85.89582
H         -8.09997       97.58897       87.28825
N         -7.17808       94.33148       87.12345
C         -7.10163       93.09407       87.88746
C         -6.06330       93.15202       88.99084
O         -6.39252       92.79573       90.11487
C         -6.90069       91.87039       86.95532
C         -5.76762       91.95242       85.95586
O         -4.48260       92.01889       86.34346
O         -6.02044       91.92265       84.76211
H         -6.96580       94.30364       86.11442
H         -8.08634       92.90620       88.37506
H         -7.84169       91.76254       86.37131
H         -6.79520       90.95039       87.57189
N         -4.78817       93.57004       88.75932
C         -3.75795       93.49415       89.78035
C         -3.30289       92.06593       90.03959
O         -2.45740       91.88861       90.90369
H         -4.53704       93.95979       87.83958
H         -4.12065       93.97719       90.71432
H         -2.86046       94.05353       89.43723
N         -3.75526       91.00893       89.28981
C         -3.28437       89.63322       89.41480
C         -1.80211       89.48715       89.08073
O         -1.26700       88.40595       89.28650
C         -3.69125       89.03578       90.78738
C         -5.22973       88.99061       90.95963
C         -5.94156       88.03437       90.01756
N         -7.29253       87.96920       90.01542
O         -5.31128       87.30821       89.26248
H         -4.45511       91.16390       88.56083
H         -3.78481       89.02162       88.63917
H         -3.25004       89.63983       91.60667
H         -3.30206       87.99997       90.89526
H         -5.63790       90.01430       90.81841
H         -5.46998       88.67086       91.99598
H         -7.85075       88.56891       90.63947
H         -7.78255       87.32262       89.37832
N         -1.09670       90.49578       88.48162
C          0.30846       90.39274       88.09625
C          0.52507       90.57293       86.59229
O          1.66663       90.45366       86.17211
C          1.15754       91.43917       88.87513
C          0.71513       92.88988       88.59736
C          1.12847       91.15865       90.38247
H         -1.57288       91.38048       88.26703
H          0.70251       89.38217       88.34516
H          2.21641       91.33955       88.54784
H          1.39096       93.60030       89.11717
H          0.75674       93.11377       87.51043
H         -0.31583       93.08039       88.96099
H          0.09926       91.24524       90.78600
H          1.50687       90.13441       90.58612
H          1.78084       91.88117       90.91739
N         -0.48981       90.88034       85.72622
C         -0.27141       91.12763       84.29968
C         -1.06886       90.14256       83.46538
O         -1.97473       89.51135       83.99077
C         -0.70501       92.57755       83.99731
C         -0.50967       92.98423       82.55918
N         -1.56900       93.33940       81.79431
O          0.61491       92.99878       82.08203
H         -1.45239       90.97555       86.07676
H          0.80292       91.00075       84.04514
H         -0.12036       93.27375       84.63684
H         -1.77718       92.68648       84.27478
H         -2.52617       93.33351       82.17651
H         -1.43342       93.61892       80.81257
N         -0.76008       89.93314       82.14725
C         -1.54634       89.00954       81.33305
C         -0.81554       88.57356       80.06664
O          0.20189       89.15579       79.72130
C         -2.87161       89.71703       80.95434
C         -3.96471       88.76727       80.56092
C         -4.47494       88.72974       79.25348
C         -4.51028       87.92523       81.54151
C         -5.51656       87.85036       78.93580
C         -5.55507       87.05856       81.22612
C         -6.06232       87.01510       79.92467
O         -7.07438       86.17193       79.63997
H          0.06353       90.40636       81.75154
H         -1.70108       88.09431       81.94548
H         -2.65634       90.46216       80.15392
H         -3.27286       90.29517       81.81436
H         -4.06767       89.37346       78.48339
H         -4.13553       87.95634       82.55763
H         -5.90276       87.82291       77.92492
H         -5.97293       86.42545       81.99838
H         -7.46087       86.11118       78.75545
N         -1.29019       87.52416       79.32895
C         -0.69198       87.10370       78.06785
C         -1.77117       87.11517       76.99996
O         -2.60972       86.22445       77.02168
C         -0.09398       85.68422       78.17868
C          1.01511       85.58833       79.23311
C          1.57275       84.19384       79.28979
O          2.11032       83.70448       78.30867
O          1.48567       83.47713       80.42668
H         -2.11101       87.00382       79.67062
H          0.13224       87.78350       77.78870
H          0.32419       85.39921       77.18696
H         -0.89530       84.95809       78.44376
H          0.60108       85.85281       80.23006
H          1.83536       86.29652       78.98847
N         -1.90429       88.09776       76.06533
C         -1.10906       89.31915       75.99692
C          0.28601       89.05894       75.47509
O          0.42532       88.50561       74.39290
C         -1.79991       90.35254       75.08359
C         -3.16120       90.76076       75.66015
C         -3.80738       91.83036       74.84346
O         -4.02442       93.01544       75.42626
O         -4.15950       91.63009       73.69217
H         -2.70425       88.00484       75.41924
H         -1.06135       89.78458       77.00798
H         -1.92305       89.94670       74.05531
H         -1.16145       91.26378       75.03125
H         -3.00256       91.15306       76.69020
H         -3.85950       89.90170       75.72779
N          1.36939       89.48909       76.18210
C          2.73578       89.33588       75.72771
H          3.31255       88.76327       76.48271
H          2.80222       88.80776       74.75377
H          3.19498       90.34067       75.61098
H          1.22548       89.97681       77.07941
Ca        -5.20114       94.75002       74.66686
O         -3.88722       94.66802       71.90305
H         -3.95255       94.18996       71.03857
H         -2.99045       95.08732       71.88986
O         -7.35235       92.06888       74.93307
H         -6.93469       92.23858       75.81456
H         -8.01449       91.35324       75.10566
O         -6.73098       93.17364       71.95091
H         -6.93228       93.76834       71.18518
H         -7.46106       92.50479       71.94461
O         -7.17543       96.44525       73.03873
H         -8.13388       96.21065       73.12017
H         -7.17149       97.33224       72.59899

Ca 1.0



