%chk=apoCaM-CA-Ng.loop2.water2.frame974.chk
%nprocshared=20
%mem=10GB
%nosave
#b3lyp/svp scf=(tight,noincore,xqc) Test 
#IOP(5/87=12) Density=Current Pop=(MK,readradii) iop(6/33=2) iop(6/42=6)

apoCaM-CA-Ng.loop2.water2.frame974 

   -2  1 
C         51.24065       20.70491       45.18061
C         50.74420       19.78447       46.25102
O         49.58118       19.40675       46.21424
H         52.10150       20.23980       44.65654
H         50.43846       20.90770       44.43844
H         51.55814       21.66415       45.63812
N         51.58909       19.35741       47.23250
C         51.17209       18.45265       48.29279
C         51.82345       17.10148       48.07241
O         52.49251       16.58291       48.95619
C         51.48014       19.09214       49.66581
C         50.96645       18.27177       50.81844
O         49.77305       18.03689       50.92329
O         51.81990       17.80871       51.75196
H         52.57520       19.66112       47.20822
H         50.07520       18.27704       48.23992
H         50.99485       20.09055       49.71859
H         52.57836       19.23703       49.76861
N         51.62273       16.45972       46.88455
C         52.06845       15.10004       46.61355
C         53.06022       15.05183       45.45413
O         53.26072       16.07568       44.81508
C         50.81186       14.28329       46.27816
H         51.08097       16.93988       46.14895
H         52.56404       14.68922       47.51690
H         50.08615       14.34720       47.11536
H         50.32788       14.69409       45.36369
H         51.02116       13.21741       46.10237
N         53.74205       13.91764       45.09507
C         53.71684       12.64741       45.82409
C         55.11027       12.28875       46.32392
O         56.07269       12.95053       45.96088
C         53.07262       11.52091       44.98310
C         53.77256       11.21773       43.69378
O         54.25098        9.98026       43.47335
O         53.84915       12.06214       42.81590
H         54.36509       13.98260       44.27495
H         53.10266       12.74302       46.73560
H         52.02893       11.79456       44.72757
H         53.03280       10.59489       45.59590
N         55.26695       11.29917       47.25081
C         56.53543       10.99453       47.89926
C         56.76429        9.50147       48.00477
O         56.70209        8.99771       49.11731
H         54.42475       10.81743       47.60153
H         56.45750       11.38722       48.93682
H         57.40088       11.50362       47.42876
N         57.01577        8.68866       46.94050
C         57.17740        9.13544       45.56634
C         58.60475        9.64540       45.35355
O         59.53528        8.85755       45.45478
C         56.83736        7.94334       44.63390
C         56.83035        8.26961       43.17267
N         56.49167        7.32901       42.26314
O         57.11327        9.38959       42.80091
H         57.09077        7.67592       47.13168
H         56.43048        9.92908       45.35447
H         55.81373        7.59066       44.88866
H         57.54947        7.10793       44.80827
H         56.23928        6.37585       42.55967
H         56.47143        7.55706       41.25971
N         58.85235       10.96407       45.09284
C         60.19432       11.52156       44.93726
C         60.80794       11.31170       43.55950
O         61.93231       11.74566       43.35528
H         58.06183       11.62147       45.08641
H         60.85800       11.12188       45.73594
H         60.13722       12.62180       45.08040
N         60.12932       10.67829       42.56498
C         60.63159       10.43632       41.21773
C         59.66929       11.00098       40.17494
O         58.49373       10.67216       40.20014
C         60.80610        8.91010       40.99614
C         62.00450        8.36790       41.77133
O         59.67017        8.19397       41.40725
H         59.19793       10.32143       42.77113
H         61.62780       10.90590       41.05971
H         61.02270        8.71143       39.91963
H         58.97300        8.32899       40.72399
H         62.11755        7.28235       41.56208
H         62.93457        8.88236       41.44819
H         61.86535        8.50971       42.86322
N         60.12284       11.81931       39.18181
C         59.29028       12.25357       38.05419
C         58.87870       11.02600       37.24845
O         59.75574       10.28248       36.83009
C         60.06657       13.27238       37.15837
C         59.26948       13.61548       35.86638
C         60.35824       14.55118       37.97377
C         60.01530       14.55084       34.91082
H         61.11775       12.09023       39.19531
H         58.38577       12.77630       38.43149
H         61.03181       12.81030       36.85087
H         58.28627       14.06437       36.12670
H         59.08132       12.68206       35.29412
H         60.92721       14.32538       38.89763
H         60.97579       15.26822       37.39860
H         59.40667       15.04739       38.26407
H         60.99931       14.11520       34.63420
H         59.41659       14.68601       33.98542
H         60.16697       15.55385       35.35661
N         57.56190       10.77090       36.97387
C         57.11178        9.58620       36.23490
C         56.46495        9.94802       34.90957
O         56.15176        9.03281       34.15803
C         56.04523        8.80497       37.04214
C         56.27679        8.88550       38.50876
O         57.29494        8.45038       39.01408
O         55.37927        9.59002       39.22337
H         56.85063       11.43346       37.30993
H         57.98446        8.92466       36.04485
H         55.95086        7.75682       36.68498
H         55.05806        9.29895       36.88721
N         56.12568       11.23525       34.59784
C         55.35156       11.56745       33.41286
C         54.88819       13.02493       33.45176
O         55.73819       13.90546       33.51108
C         56.16463       11.34644       32.11673
C         55.29059       11.67240       30.92802
C         55.30048       12.96661       30.37848
C         54.39843       10.71527       30.41761
C         54.42572       13.29938       29.34255
C         53.53432       11.04874       29.36974
C         53.54410       12.34121       28.83704
H         56.33540       11.99546       35.25944
H         54.47208       10.89223       33.38682
H         56.54195       10.30646       32.02392
H         57.05710       12.01010       32.13442
H         55.96293       13.72643       30.77405
H         54.36652        9.71731       30.83725
H         54.42471       14.30408       28.94043
H         52.84744       10.30934       28.97950
H         52.86414       12.60295       28.03723
N         53.56831       13.36934       33.32076
C         53.11180       14.73016       33.08178
C         53.05969       15.59804       34.32804
O         52.63227       16.73793       34.20587
C         51.73497       14.51825       32.44366
C         51.22940       13.30184       33.18516
C         52.47413       12.42201       33.20642
H         53.74954       15.24687       32.32964
H         51.06660       15.40489       32.43867
H         51.89248       14.20108       31.38540
H         50.99690       13.62050       34.22615
H         50.33377       12.81053       32.74901
H         52.41383       11.71680       34.06345
H         52.58754       11.86649       32.25119
N         53.50122       15.16603       35.54553
C         53.50116       16.02894       36.72695
C         54.39335       17.26438       36.58307
O         54.34807       18.10238       37.47368
C         53.89587       15.23621       37.99417
C         55.33370       14.68657       37.96342
C         55.62089       13.93240       39.22612
O         55.88435       12.74463       39.17959
O         55.58496       14.55867       40.41745
H         53.82186       14.19431       35.64059
H         52.45650       16.38348       36.87626
H         53.18477       14.38930       38.11620
H         53.78304       15.90047       38.88015
H         56.06947       15.51288       37.86824
H         55.46792       14.00443       37.09751
N         55.22325       17.45402       35.51348
C         56.05130       18.63172       35.34474
H         57.11623       18.32671       35.27949
H         55.76690       19.14548       34.40203
H         55.94238       19.35510       36.17968
H         55.29138       16.74502       34.77200
Ca        55.70771       10.73270       41.11295
O         52.94839       11.01367       39.54957
H         52.37601       11.69525       39.98171
H         52.76578       10.17943       40.05147
O         57.51721       12.83592       42.63592
H         56.71048       12.74576       43.20280
H         57.68947       13.81010       42.60250

Ca 1.0



