%chk=apoCaM-CA-Ng.loop2.water2.frame929.chk
%nprocshared=20
%mem=10GB
%nosave
#b3lyp/svp scf=(tight,noincore,xqc) Test 
#IOP(5/87=12) Density=Current Pop=(MK,readradii) iop(6/33=2) iop(6/42=6)

apoCaM-CA-Ng.loop2.water2.frame929 

   -2  1 
C         -4.44293       -1.94537      -19.78644
C         -3.66252       -3.15025      -20.22267
O         -3.00452       -3.10007      -21.25244
H         -5.52187       -2.20031      -19.72448
H         -4.08928       -1.61585      -18.78687
H         -4.31433       -1.10794      -20.50497
N         -3.69783       -4.28833      -19.47411
C         -2.98544       -5.50990      -19.84293
C         -1.45949       -5.36972      -19.73870
O         -0.77175       -6.31758      -20.09198
C         -3.48118       -6.67434      -18.95362
C         -2.95877       -8.01384      -19.39669
O         -3.21669       -8.43577      -20.51320
O         -2.21136       -8.75827      -18.56004
H         -4.29901       -4.29303      -18.63461
H         -3.26260       -5.75226      -20.89409
H         -4.59117       -6.72314      -19.00252
H         -3.18863       -6.48178      -17.89813
N         -0.85490       -4.23154      -19.28079
C          0.59156       -4.06888      -19.17646
C          0.95504       -3.56782      -17.77983
O          0.45603       -2.50855      -17.42393
C          1.04896       -3.03774      -20.21327
H         -1.42823       -3.42197      -19.00961
H          1.11561       -5.00372      -19.44182
H          0.55675       -2.05540      -20.04657
H          2.15079       -2.90352      -20.15779
H          0.79051       -3.39000      -21.23508
N          1.82852       -4.17959      -16.92119
C          2.52829       -5.44527      -17.13040
C          2.54946       -6.27340      -15.84589
O          2.09136       -5.80625      -14.81265
C          3.95067       -5.18382      -17.67335
C          4.81621       -4.36287      -16.75348
O          4.50222       -3.22038      -16.46173
O          5.97083       -4.87113      -16.28470
H          2.04227       -3.66832      -16.05038
H          1.99097       -6.06079      -17.87572
H          3.87103       -4.65000      -18.64528
H          4.45175       -6.15606      -17.86883
N          3.02225       -7.55092      -15.86097
C          2.97994       -8.43323      -14.70396
C          4.25565       -9.23034      -14.58126
O          4.20082      -10.41776      -14.87131
H          3.32796       -7.95345      -16.76079
H          2.16359       -9.16236      -14.90654
H          2.72406       -7.91599      -13.75607
N          5.46061       -8.71749      -14.20302
C          5.73693       -7.36464      -13.72203
C          5.22498       -7.19855      -12.28997
O          5.49727       -8.07162      -11.47660
C          7.27608       -7.17619      -13.71303
C          7.75117       -5.78130      -13.40220
N          9.07529       -5.54635      -13.25978
O          6.95828       -4.86090      -13.29177
H          6.25913       -9.37238      -14.25102
H          5.31276       -6.61535      -14.42367
H          7.68527       -7.43302      -14.71451
H          7.71743       -7.87774      -12.97089
H          9.75662       -6.31291      -13.35379
H          9.42503       -4.60456      -13.03981
N          4.53932       -6.08548      -11.89096
C          4.03835       -5.89822      -10.52820
C          4.64852       -4.71849       -9.77745
O          4.21772       -4.47742       -8.65890
H          4.36055       -5.34027      -12.57850
H          4.21357       -6.80125       -9.90491
H          2.94030       -5.74536      -10.58896
N          5.65074       -3.95350      -10.29655
C          6.26067       -2.80951       -9.61194
C          6.07508       -1.54865      -10.44571
O          5.46877       -1.61277      -11.50653
C          7.77510       -3.08257       -9.37566
C          8.00835       -4.22138       -8.38539
O          8.42057       -3.38880      -10.58365
H          6.01395       -4.18398      -11.22612
H          5.78552       -2.62124       -8.62436
H          8.26617       -2.20086       -8.90452
H          8.62283       -2.52342      -11.02221
H          7.55096       -3.96908       -7.40450
H          7.57773       -5.17209       -8.75999
H          9.10100       -4.35929       -8.23043
N          6.62637       -0.36676      -10.04040
C          6.63092        0.83682      -10.86000
C          8.03513        0.97928      -11.41132
O          8.98539        1.08411      -10.64777
C          6.17357        2.07802      -10.04521
C          6.30706        3.41236      -10.83427
C          4.73783        1.88594       -9.52709
C          5.45773        3.51485      -12.10500
H          7.15855       -0.33718       -9.15842
H          5.93084        0.71855      -11.71488
H          6.83932        2.17236       -9.15837
H          7.37081        3.56421      -11.11808
H          6.02707        4.25368      -10.16340
H          4.67470        0.98667       -8.87951
H          4.42642        2.76447       -8.92316
H          4.02259        1.75376      -10.36575
H          4.37567        3.44556      -11.87417
H          5.63876        4.49891      -12.58727
H          5.73282        2.72473      -12.82920
N          8.22173        0.93873      -12.75669
C          9.51443        0.92392      -13.41918
C          9.73960        2.15265      -14.28222
O         10.85082        2.27893      -14.78097
C          9.57709       -0.31953      -14.33278
C          9.50439       -1.61145      -13.57551
O         10.44596       -1.95332      -12.87817
O          8.42489       -2.41758      -13.67238
H          7.39109        0.86533      -13.34619
H         10.33548        0.89970      -12.66824
H         10.51350       -0.33436      -14.93271
H          8.72635       -0.26601      -15.04587
N          8.76437        3.07582      -14.55782
C          9.04089        4.20941      -15.43274
C          7.76248        4.94778      -15.85354
O          7.06363        5.44512      -14.98104
C          9.97477        5.22014      -14.72287
C         10.46113        6.25915      -15.70040
C          9.94122        7.56316      -15.68632
C         11.43770        5.91594      -16.65128
C         10.38456        8.50501      -16.62034
C         11.88919        6.86423      -17.57207
C         11.35943        8.15681      -17.56014
H          7.80897        2.94384      -14.19993
H          9.55776        3.81032      -16.32832
H         10.86694        4.74018      -14.26820
H          9.41128        5.68731      -13.88474
H          9.18043        7.84357      -14.96878
H         11.85384        4.91580      -16.67212
H          9.97073        9.50470      -16.61730
H         12.64725        6.59514      -18.29634
H         11.70413        8.88774      -18.27971
N          7.43109        5.13854      -17.17230
C          6.37558        6.04183      -17.62514
C          4.97258        5.44605      -17.59302
O          4.04499        6.13806      -17.98983
C          6.80881        6.36079      -19.06059
C          7.37982        5.03226      -19.51145
C          8.19981        4.62890      -18.29192
H          6.37410        6.98977      -17.04242
H          6.02129        6.79677      -19.71121
H          7.66076        7.07889      -19.01784
H          6.52937        4.32101      -19.62121
H          7.95515        5.04828      -20.46079
H          8.31960        3.52353      -18.27194
H          9.19247        5.12926      -18.29474
N          4.73148        4.18347      -17.14857
C          3.39666        3.57058      -17.12748
C          2.40115        4.27516      -16.20815
O          1.23964        3.89167      -16.23057
C          3.53646        2.08206      -16.73679
C          4.06601        1.92332      -15.30084
C          5.00355        0.76600      -15.20050
O          6.19815        0.98705      -15.28623
O          4.59626       -0.49988      -15.02215
H          5.54214        3.61557      -16.86543
H          2.99744        3.61256      -18.16511
H          4.27182        1.66508      -17.46206
H          2.59691        1.49983      -16.85606
H          3.27148        1.93624      -14.52381
H          4.69341        2.80139      -15.04373
N          2.76665        5.29482      -15.37488
C          1.83341        5.99660      -14.51565
H          0.79390        5.61971      -14.61463
H          2.14960        5.88412      -13.45780
H          1.83665        7.07570      -14.77814
H          3.74698        5.60179      -15.32585
Ca         6.36823       -1.73157      -14.33342
O          7.54428       -1.85896      -17.10665
H          7.78612       -1.92660      -18.06375
H          7.20104       -0.93611      -17.00350
O          3.32783       -2.90620      -13.42539
H          2.68627       -2.20875      -13.71064
H          2.79126       -3.73674      -13.40697

Ca 1.0



