%chk=apoCaM-CA-Ng.loop1.water3.frame1100.chk
%nprocshared=20
%mem=10GB
%nosave
#b3lyp/svp scf=(tight,noincore,xqc) Test 
#IOP(5/87=12) Density=Current Pop=(MK,readradii) iop(6/33=2) iop(6/42=6)

apoCaM-CA-Ng.loop1.water3.frame1100 

   0  1 
C         67.40170       73.87722       60.32192
C         67.07172       72.48535       60.77149
O         66.69275       71.66857       59.94358
H         68.46107       74.10678       60.55708
H         67.24345       73.98546       59.22707
H         66.74264       74.60189       60.84600
N         67.16716       72.15475       62.09168
C         66.79599       70.84221       62.61610
C         65.55451       70.98405       63.47834
O         65.51601       70.54981       64.62129
C         67.99702       70.16792       63.31872
C         68.55229       70.88905       64.52571
O         69.61227       70.36504       65.16893
O         68.06163       71.92869       64.93698
H         67.46695       72.88712       62.75170
H         66.50154       70.17198       61.77965
H         68.81590       70.06759       62.57378
H         67.69674       69.14604       63.63554
N         64.48389       71.62541       62.94401
C         63.21692       71.85378       63.62489
C         62.47521       70.54618       63.89117
O         62.13414       70.33050       65.04536
C         62.35428       72.86457       62.82995
C         63.07096       74.23054       62.76117
C         62.32493       75.24902       61.89853
C         63.11105       76.56945       61.85099
N         62.46210       77.54183       60.97480
H         64.59387       71.99938       61.98957
H         63.41623       72.34551       64.60529
H         61.37656       73.00680       63.34080
H         62.15450       72.49023       61.80560
H         64.08254       74.11090       62.32097
H         63.19025       74.63032       63.79275
H         61.30870       75.42828       62.31156
H         62.23005       74.84435       60.86705
H         64.14068       76.37711       61.47236
H         63.19206       76.99130       62.87795
H         62.41787       77.16790       59.99890
H         61.49805       77.75195       61.32011
H         63.02393       78.42395       60.97160
N         62.19186       69.59239       62.94844
C         62.60995       69.60819       61.54843
C         63.66096       68.53573       61.31452
O         63.89643       67.71728       62.19386
C         61.39616       69.50069       60.60809
C         60.55497       68.28200       60.86396
O         61.06654       67.04719       60.70080
O         59.39593       68.41327       61.22217
H         61.69773       68.74615       63.27513
H         63.10199       70.55392       61.29719
H         61.73023       69.49851       59.54874
H         60.76647       70.40518       60.76305
N         64.43189       68.56383       60.19116
C         65.58911       67.69674       60.03928
C         65.23577       66.28316       59.65879
O         64.09315       65.99920       59.33885
H         64.28375       69.31292       59.49817
H         66.17615       67.71335       60.98377
H         66.24673       68.08698       59.23387
N         66.21321       65.33434       59.67656
C         66.03423       63.95635       59.22178
C         67.21739       63.56958       58.30857
O         68.16012       64.34481       58.22919
C         65.89247       63.05403       60.47033
C         64.63288       63.40897       61.22315
O         63.44126       63.29922       60.59642
O         64.68786       63.79851       62.37721
H         67.13278       65.60187       60.06098
H         65.10016       63.88199       58.62972
H         66.78946       63.16478       61.11789
H         65.80241       61.98991       60.21293
N         67.28218       62.42448       57.55704
C         66.23921       61.42259       57.43901
C         65.00424       61.96534       56.77038
O         65.03914       63.05651       56.21941
H         68.13911       62.26235       57.00360
H         66.00463       60.99465       58.42261
H         66.59953       60.57410       56.81683
N         63.86109       61.22966       56.77377
C         62.63164       61.66499       56.11933
C         62.13590       62.99914       56.66693
O         62.38370       63.31967       57.81939
C         61.54966       60.56271       56.23266
C         60.26287       60.91174       55.47757
O         61.25795       60.32086       57.58365
H         63.87836       60.31458       57.25150
H         62.86758       61.79997       55.04000
H         61.98094       59.64146       55.77636
H         60.81263       59.43526       57.63329
H         60.48608       61.11019       54.40863
H         59.55541       60.05924       55.53497
H         59.76922       61.80025       55.92255
N         61.45588       63.84130       55.83624
C         60.92670       65.15722       56.17698
C         59.79661       65.04889       57.19769
O         60.03008       64.63552       58.32415
C         62.03509       66.15446       56.64056
C         63.31153       66.12080       55.75842
C         61.48651       67.59172       56.73789
C         63.09610       66.40808       54.27193
H         61.30938       63.53587       54.86220
H         60.50255       65.57377       55.23636
H         62.35788       65.86238       57.65682
H         63.77143       65.12003       55.83910
H         64.05262       66.84626       56.16158
H         61.13328       67.95304       55.74929
H         60.63719       67.64538       57.44997
H         62.27787       68.28167       57.10364
H         62.41479       65.65792       53.82105
H         62.68954       67.42601       54.11199
H         64.07255       66.33706       53.74647
N         58.54369       65.47393       56.87000
C         57.44733       65.56784       57.83425
C         56.83273       64.23330       58.26475
O         55.94670       64.27320       59.10806
C         56.31335       66.47369       57.26818
C         55.58088       65.84700       56.06972
O         56.83728       67.71699       56.87730
H         58.40866       65.86651       55.92716
H         57.84605       66.08719       58.72764
H         55.54052       66.63767       58.05596
H         57.03279       68.22242       57.70892
H         54.78310       66.53436       55.71841
H         56.27008       65.65259       55.22308
H         55.09767       64.88936       56.35792
N         57.14601       63.04208       57.67429
C         56.33454       61.83948       57.89625
C         56.40103       61.35817       59.33987
O         57.43772       60.85931       59.74969
C         56.75338       60.71195       56.91389
C         55.85267       59.47424       57.00751
O         56.76354       61.18297       55.58807
H         57.88468       63.02159       56.95718
H         55.28361       62.11716       57.65546
H         57.79091       60.40232       57.16523
H         55.86032       61.54216       55.38603
H         54.80543       59.73985       56.74962
H         56.21027       58.70081       56.29495
H         55.87431       59.04179       58.02941
N         55.32624       61.50408       60.17519
C         55.32576       61.11572       61.58455
C         56.54154       61.68316       62.28990
O         57.39212       60.93270       62.75067
C         55.16693       59.59105       61.78785
C         53.79454       59.09489       61.29496
C         53.48733       57.67926       61.80760
C         52.08770       57.22288       61.36656
N         51.74818       55.92390       61.94844
H         54.48569       61.98281       59.81823
H         54.43562       61.56368       62.08191
H         55.20378       59.41574       62.88715
H         55.99128       59.01430       61.31575
H         53.75468       59.13580       60.18492
H         53.00331       59.76293       61.70258
H         53.51594       57.69338       62.92036
H         54.25169       56.96079       61.44125
H         52.05300       57.15597       60.25686
H         51.32944       57.96846       61.69644
H         51.72587       55.99475       62.99229
H         50.79979       55.63617       61.61440
H         52.44567       55.20113       61.65866
N         56.66208       63.03037       62.42468
C         57.79541       63.67480       63.07175
C         58.43037       64.72393       62.12193
O         59.05621       64.02698       61.08240
C         57.39633       64.20958       64.46439
C         57.04696       63.05259       65.41661
C         56.66482       63.55954       66.77567
O         55.68742       64.27831       66.91166
O         57.38803       63.20715       67.85543
H         55.89260       63.62456       62.08100
H         58.60765       62.94462       63.28059
H         56.52656       64.88379       64.41925
H         58.25698       64.76686       64.89492
H         57.92927       62.38179       65.51242
H         56.19749       62.46047       65.01422
N         57.48948       65.66930       61.49024
C         56.69631       66.50347       62.38876
H         55.80778       65.94309       62.73821
H         57.30919       66.89777       63.22677
H         56.28092       67.36285       61.81907
H         58.08180       66.31861       60.92898
Ca        61.34742       63.89299       61.28911
O         61.43888       61.97190       63.64794
H         60.63909       61.51381       63.28628
H         61.09847       62.84143       63.97744
O         60.00546       61.81891       59.58162
H         59.92328       61.37599       60.46287
H         60.97131       62.00800       59.49654
O         62.44810       65.54202       63.48007
H         62.79343       64.73146       63.93071
H         62.58981       66.26864       64.13636

Ca 1.0



