%chk=apoCaM-CA-Ng.loop2.water4.frame1392.chk
%nprocshared=20
%mem=10GB
%nosave
#b3lyp/svp scf=(tight,noincore,xqc) Test 
#IOP(5/87=12) Density=Current Pop=(MK,readradii) iop(6/33=2) iop(6/42=6)

apoCaM-CA-Ng.loop2.water4.frame1392 

   -2  1 
C         21.11316       98.92750       42.34145
C         20.97569       97.42520       42.46059
O         21.37424       96.76661       41.51114
H         22.18241       99.17129       42.16626
H         20.52647       99.27933       41.46753
H         20.80048       99.52813       43.20854
N         20.45775       96.75813       43.53944
C         19.89860       97.36048       44.74989
C         18.42778       97.00722       44.96593
O         17.83372       97.59543       45.85935
C         20.76882       97.01356       45.98170
C         20.88722       95.54893       46.32295
O         21.63585       95.17873       47.37880
O         20.32649       94.69191       45.66299
H         20.47069       95.72925       43.48255
H         19.90655       98.45640       44.67631
H         20.35923       97.53954       46.87090
H         21.79450       97.40146       45.80041
N         17.76461       96.08535       44.20270
C         16.33346       95.81948       44.33090
C         16.03609       94.44131       44.91052
O         14.86430       94.11095       45.03163
C         15.68266       95.98908       42.95343
H         18.27344       95.54861       43.48664
H         15.85615       96.55161       45.01812
H         15.87251       97.01474       42.57011
H         16.10314       95.25614       42.23122
H         14.58374       95.84037       43.01588
N         17.02659       93.60650       45.34057
C         16.78748       92.31312       45.96743
C         17.13589       92.35829       47.49083
O         18.20931       93.18885       47.83931
C         17.36322       91.15350       45.08730
C         18.70378       91.25529       44.35788
O         18.70877       91.18084       43.13904
O         19.89241       91.30097       44.98800
H         18.00701       93.89923       45.25591
H         15.69938       92.08335       46.01201
H         16.61996       91.04208       44.26514
H         17.32293       90.20141       45.65567
N         17.21794       91.02545       48.11717
C         17.51671       91.07047       49.56060
C         18.73512       90.22840       49.85033
O         19.75794       90.45492       49.22164
H         16.30980       90.52502       47.97198
H         16.63953       90.73855       50.16027
H         17.74701       92.10257       49.90284
N         18.73254       89.29007       50.84216
C         19.94032       88.56757       51.23576
C         19.66088       87.09788       51.51479
O         18.76519       86.79411       52.29157
C         20.53250       89.23077       52.49143
C         21.84950       88.59379       52.87179
N         22.00998       87.99790       54.07499
O         22.77981       88.61244       52.07855
H         17.88596       89.18868       51.42335
H         20.71983       88.65389       50.44616
H         19.80415       89.16943       53.32894
H         20.72233       90.30642       52.28078
H         21.23926       87.96858       54.75744
H         22.90920       87.55909       54.32282
N         20.48036       86.13561       50.99807
C         20.38166       84.72400       51.34587
C         19.14745       84.06361       50.77615
O         18.36676       84.73208       50.11280
H         21.26959       86.42268       50.40037
H         20.39727       84.62206       52.45297
H         21.26898       84.19786       50.94020
N         18.86769       82.74203       50.98181
C         19.68676       81.80743       51.76413
C         20.93027       81.32149       50.98965
O         21.67074       80.51435       51.52870
C         18.77954       80.59806       52.17866
C         19.41783       79.60572       53.16908
O         17.57739       81.06818       52.74070
H         17.97479       82.39560       50.59422
H         19.99112       82.30475       52.71079
H         18.51046       80.03313       51.25886
H         17.80524       81.58385       53.55819
H         20.29705       79.08356       52.75074
H         19.71171       80.12751       54.10494
H         18.67951       78.81631       53.42513
N         21.22197       81.75158       49.72467
C         22.27025       81.16990       48.87870
C         23.45489       82.10756       48.66242
O         23.22005       83.27574       48.38750
C         21.71298       80.68277       47.50226
C         21.30003       81.76208       46.45020
C         20.60150       79.64094       47.70133
C         20.11337       82.67848       46.76773
H         20.64423       82.48744       49.32876
H         22.63309       80.24577       49.35310
H         22.55493       80.13995       47.01447
H         21.03457       81.21263       45.52107
H         22.17167       82.40186       46.19706
H         20.97403       78.80325       48.32946
H         19.71344       80.08453       48.19563
H         20.29607       79.21702       46.72088
H         20.36292       83.43399       47.53361
H         19.86074       83.26619       45.86082
H         19.21605       82.09462       47.05939
N         24.76242       81.67882       48.64690
C         25.20667       80.30883       48.92241
C         26.64046       80.04913       48.46454
O         27.53819       80.78512       48.85084
C         25.14217       79.97718       50.43788
C         26.04973       80.83575       51.27852
O         25.87621       82.04202       51.34271
O         27.06450       80.27160       51.96186
H         25.47941       82.37012       48.37557
H         24.55598       79.59707       48.37117
H         25.44342       78.91261       50.56309
H         24.12426       80.07429       50.84719
N         26.93751       78.93378       47.72990
C         28.30743       78.44311       47.59323
C         28.42743       77.44193       46.45320
O         27.67887       76.47507       46.45811
C         28.73576       77.78501       48.92858
C         30.16459       77.28749       48.89662
C         30.49366       76.07310       48.26381
C         31.18505       78.03875       49.50228
C         31.81757       75.62781       48.23157
C         32.50948       77.59318       49.46085
C         32.82563       76.38925       48.82619
H         26.16667       78.30302       47.46260
H         28.99093       79.29420       47.44253
H         28.05765       76.95217       49.21990
H         28.64253       78.55713       49.72221
H         29.72855       75.46347       47.80187
H         30.95817       78.97684       49.99287
H         32.06144       74.69195       47.74500
H         33.29142       78.18334       49.91985
H         33.85124       76.04541       48.79681
N         29.39582       77.53798       45.48283
C         30.41264       78.57623       45.35610
C         29.84663       79.96699       45.19743
O         30.31912       80.87642       45.86186
C         31.17273       78.18884       44.08188
C         31.08974       76.68374       44.12817
C         29.62782       76.48100       44.51680
H         31.10027       78.51919       46.23151
H         30.60195       78.50563       43.17859
H         32.19760       78.61433       44.01761
H         31.40161       76.16147       43.19954
H         31.73448       76.33631       44.96975
H         28.94318       76.62868       43.65314
H         29.51412       75.46068       44.94311
N         28.79928       80.19234       44.35639
C         28.22576       81.51519       44.15870
C         29.17209       82.32723       43.28505
O         29.40874       81.91310       42.15867
C         26.84129       81.41221       43.47912
C         25.82429       80.66211       44.36102
C         24.48834       80.56021       43.68324
O         23.96118       79.35079       43.41171
O         23.86876       81.56882       43.38481
H         28.38280       79.38664       43.86581
H         28.05306       81.98894       45.14833
H         26.93941       80.89153       42.50030
H         26.45634       82.43970       43.29395
H         25.69630       81.19498       45.32844
H         26.18929       79.63551       44.57701
N         29.77341       83.48052       43.69302
C         29.59655       84.07180       45.00025
H         30.20038       85.00132       45.07389
H         28.52981       84.32865       45.16471
H         29.94644       83.37587       45.78857
H         30.40136       83.96522       43.03258
Ca        19.96310       92.16087       46.98897
O         20.24105       93.57718       50.09464
H         19.78028       93.80708       50.94015
H         21.18359       93.43241       50.35859
O         22.88281       92.58272       45.43837
H         23.67395       92.06284       45.72864
H         22.72254       92.29109       44.50578
O         22.10437       89.91283       47.15159
H         22.43322       89.46436       47.97076
H         22.43179       89.34755       46.40767
O         23.30700       92.43278       48.82654
H         24.19677       92.81975       48.62947
H         23.33997       92.21447       49.79187

Ca 1.0



