%chk=apoCaM-CA-Ng.loop2.water4.frame278.chk
%nprocshared=20
%mem=10GB
%nosave
#b3lyp/svp scf=(tight,noincore,xqc) Test 
#IOP(5/87=12) Density=Current Pop=(MK,readradii) iop(6/33=2) iop(6/42=6)

apoCaM-CA-Ng.loop2.water4.frame278 

   -2  1 
C         46.00353       47.89617       39.94143
C         46.94220       48.60231       40.87748
O         47.78758       47.94302       41.46215
H         45.28194       48.60120       39.47877
H         46.58229       47.39860       39.13502
H         45.43174       47.12601       40.50221
N         46.86714       49.95196       41.06012
C         47.73406       50.67395       41.98835
C         47.38378       50.27693       43.41209
O         46.25090       50.49329       43.82227
C         47.56417       52.19512       41.79404
C         48.48861       53.02945       42.64478
O         48.44131       54.24569       42.56119
O         49.37468       52.46185       43.48719
H         46.17549       50.48225       40.50775
H         48.79198       50.42338       41.74761
H         46.51231       52.48196       42.01315
H         47.77591       52.43779       40.72977
N         48.29849       49.65379       44.21046
C         47.97026       49.14375       45.54082
C         46.80668       48.18294       45.42955
O         45.85583       48.30623       46.18744
C         49.17843       48.44226       46.16684
H         49.24350       49.48267       43.83315
H         47.69237       49.98705       46.21300
H         48.91674       48.07313       47.18244
H         49.50784       47.58326       45.54514
H         50.01957       49.16125       46.26660
N         46.78032       47.28150       44.40487
C         45.64568       46.44067       44.05541
C         45.46701       45.36436       45.10281
O         44.40549       45.25070       45.70054
C         44.39302       47.32244       43.78423
C         43.22226       46.59213       43.19513
O         42.09099       47.27303       42.93066
O         43.28134       45.40064       42.94377
H         47.59713       47.23397       43.78112
H         45.89705       45.92220       43.10233
H         44.67068       48.12245       43.06376
H         44.04539       47.80580       44.71900
N         46.51551       44.53547       45.37605
C         46.47523       43.49192       46.38105
C         46.86042       42.15351       45.79863
O         47.83521       41.57457       46.25805
H         47.40471       44.67562       44.87136
H         45.47045       43.40676       46.84700
H         47.19639       43.75954       47.18370
N         46.11562       41.57250       44.81470
C         46.38968       40.22001       44.31866
C         47.73907       40.10795       43.61116
O         48.40362       41.11290       43.39932
C         45.25160       39.73966       43.39315
C         43.92910       39.69897       44.12352
N         42.87384       40.42727       43.69279
O         43.80980       38.99365       45.11452
H         45.28880       42.08311       44.46634
H         46.42229       39.54015       45.19958
H         45.46078       38.71143       43.03071
H         45.19318       40.41046       42.51015
H         42.94853       41.01917       42.85560
H         41.97502       40.39573       44.19668
N         48.22147       38.87373       43.27000
C         49.54144       38.63824       42.69642
C         49.46140       37.81275       41.43224
O         48.91856       36.71779       41.48469
H         47.65091       38.04426       43.49397
H         50.13285       38.05180       43.43107
H         50.08353       39.58921       42.51175
N         49.98768       38.27135       40.25688
C         49.92366       37.51165       39.00496
C         48.79535       38.01047       38.12408
O         48.29314       37.23038       37.32586
C         51.27731       37.47685       38.24706
C         51.77402       38.85956       37.78584
O         52.26302       36.83310       39.01398
H         50.39943       39.21542       40.24535
H         49.65853       36.45652       39.23962
H         51.12805       36.86832       37.32749
H         52.45982       37.40785       39.79856
H         51.02001       39.35410       37.14225
H         51.99432       39.52196       38.64767
H         52.70661       38.74456       37.19377
N         48.30882       39.27608       38.25025
C         47.09693       39.74560       37.59380
C         46.10674       40.17321       38.65923
O         46.45205       40.14941       39.83559
C         47.36419       40.85346       36.52894
C         47.85777       42.24078       37.03372
C         48.25107       40.30971       35.39807
C         49.29917       42.35096       37.54465
H         48.76958       39.91331       38.90452
H         46.61685       38.90175       37.05028
H         46.37687       41.06122       36.06166
H         47.16346       42.62626       37.81064
H         47.79207       42.93438       36.16630
H         47.79799       39.39203       34.96497
H         48.34603       41.06091       34.58592
H         49.26202       40.05093       35.76751
H         49.46635       41.81544       38.49033
H         50.02443       42.00460       36.78027
H         49.51916       43.41856       37.75657
N         44.84041       40.55216       38.32857
C         43.85593       40.92148       39.33469
C         42.68683       39.95084       39.24746
O         41.53828       40.36537       39.20026
C         43.52028       42.41265       39.12957
C         42.76800       43.04991       40.25748
O         43.24089       43.05031       41.38146
O         41.63299       43.72750       40.01261
H         44.55482       40.56722       37.33770
H         44.29139       40.80867       40.34911
H         42.98898       42.55666       38.16337
H         44.48433       42.96533       39.07082
N         42.95010       38.60962       39.16833
C         41.94434       37.55574       39.04061
C         40.99091       37.83348       37.88635
O         41.46021       38.10024       36.78932
C         42.64325       36.18414       38.85434
C         41.65862       35.04272       38.72275
C         41.34709       34.24121       39.83348
C         41.03383       34.77515       37.48931
C         40.41565       33.20431       39.71609
C         40.11080       33.73227       37.37464
C         39.79830       32.95015       38.48838
H         43.94041       38.31946       39.16925
H         41.38251       37.51006       39.99474
H         43.28222       36.01749       39.74930
H         43.32146       36.18309       37.97195
H         41.81013       34.43063       40.79340
H         41.26320       35.36952       36.61407
H         40.16958       32.59936       40.57871
H         39.63603       33.53224       36.42238
H         39.07832       32.14692       38.39967
N         39.63104       37.75308       38.04708
C         38.65117       38.04040       37.01015
C         38.79612       39.42598       36.41961
O         38.73845       39.56752       35.20655
C         37.30832       37.95294       37.75471
C         37.58950       36.87690       38.76913
C         38.97559       37.28290       39.25552
H         38.70933       37.25423       36.22341
H         37.12667       38.88269       38.34260
H         36.42962       37.77918       37.09787
H         36.83261       36.76115       39.57342
H         37.67414       35.91206       38.21569
H         38.94776       38.11080       39.99699
H         39.44212       36.37631       39.69250
N         38.96251       40.50270       37.24065
C         38.96526       41.88426       36.76757
C         40.07309       42.17969       35.76586
O         39.99057       43.20865       35.10817
C         39.10449       42.87281       37.94625
C         37.97395       42.76506       38.98457
C         38.18396       43.73720       40.10764
O         38.21947       44.93719       39.88605
O         38.32499       43.28717       41.36996
H         39.04886       40.31902       38.24970
H         37.99105       42.05822       36.25867
H         39.11526       43.91254       37.54996
H         40.07699       42.67582       38.44147
H         37.93443       41.74779       39.42300
H         36.99790       42.97636       38.50105
N         41.14899       41.36095       35.60440
C         42.18535       41.64484       34.63619
H         42.97949       40.87070       34.69204
H         41.75339       41.63957       33.61242
H         42.63929       42.63768       34.84163
H         41.25563       40.52381       36.19001
Ca        40.68086       45.00199       41.61389
O         41.92517       47.28328       39.75462
H         41.72583       48.17657       39.37691
H         41.83275       46.66257       38.98870
O         39.15339       46.19453       44.23700
H         39.48402       46.96522       44.76348
H         38.70156       45.61482       44.90031
O         38.83271       47.59709       41.47376
H         38.96972       48.11562       40.64158
H         38.36966       48.22342       42.08501
O         41.09338       43.53653       44.23502
H         41.91395       43.80714       44.71801
H         41.42340       43.03316       43.44918

Ca 1.0



