%chk=apoCaM-CA-Ng.loop1.water3.frame125.chk
%nprocshared=20
%mem=10GB
%nosave
#b3lyp/svp scf=(tight,noincore,xqc) Test 
#IOP(5/87=12) Density=Current Pop=(MK,readradii) iop(6/33=2) iop(6/42=6)

apoCaM-CA-Ng.loop1.water3.frame125 

   0  1 
C         54.07005       35.52915       -5.01878
C         53.94870       34.50356       -3.92838
O         54.95857       33.99234       -3.46551
H         53.62556       36.48943       -4.68283
H         55.13345       35.69975       -5.28963
H         53.52628       35.17691       -5.92157
N         52.71532       34.14935       -3.47142
C         52.48904       33.16390       -2.41101
C         52.91313       31.73018       -2.77332
O         52.77629       30.86136       -1.92357
C         51.01196       33.20105       -1.94012
C         50.00465       32.76492       -2.97489
O         49.21339       31.70352       -2.73050
O         49.86408       33.38710       -4.01534
H         51.91022       34.65238       -3.87166
H         53.09264       33.47801       -1.53306
H         50.76215       34.23412       -1.61144
H         50.90999       32.54177       -1.05052
N         53.45451       31.41050       -3.98543
C         53.89681       30.07508       -4.38394
C         55.40581       30.09291       -4.62020
O         55.84650       30.96918       -5.35217
C         53.21955       29.70973       -5.72395
C         51.70167       29.48492       -5.64801
C         51.34288       28.10703       -5.06906
C         49.83329       27.84370       -5.16877
N         49.51999       26.45168       -4.84476
H         53.57934       32.14789       -4.68967
H         53.63279       29.32198       -3.62833
H         53.68280       28.79961       -6.16519
H         53.41317       30.54256       -6.43568
H         51.33076       29.49087       -6.69621
H         51.20032       30.31276       -5.10123
H         51.66951       28.01261       -4.01242
H         51.86806       27.33702       -5.67659
H         49.48720       28.04294       -6.20762
H         49.28993       28.52923       -4.48133
H         48.48603       26.30943       -4.90931
H         49.98286       25.81642       -5.53645
H         49.84260       26.21548       -3.87918
N         56.29030       29.16075       -4.13692
C         56.01041       27.98509       -3.31112
C         54.92017       27.10953       -3.92132
O         53.90487       26.89644       -3.27293
C         55.72816       28.39164       -1.84262
C         56.87980       29.10599       -1.17585
O         56.75708       29.49727        0.10620
O         57.92478       29.32664       -1.76867
H         57.27392       29.26449       -4.43502
H         56.92288       27.36076       -3.27586
H         55.52961       27.47117       -1.25038
H         54.83780       29.04412       -1.78230
N         55.01469       26.56627       -5.16927
C         56.20862       26.61714       -6.00452
C         55.91114       26.26987       -7.45515
O         54.74839       26.17568       -7.82276
H         54.19245       26.04659       -5.51335
H         56.96466       25.94231       -5.55579
H         56.62513       27.63942       -6.04555
N         56.89770       26.13228       -8.38769
C         58.32903       26.09656       -8.08572
C         58.68553       24.81475       -7.32738
O         57.80021       24.00933       -7.06692
C         59.15163       26.25677       -9.39286
C         58.94564       25.19319      -10.44416
O         58.11912       24.14893      -10.24111
O         59.53500       25.28784      -11.50903
H         56.59867       26.02043       -9.36936
H         58.59056       26.97445       -7.45563
H         60.23409       26.30030       -9.15111
H         58.87823       27.23625       -9.84415
N         59.96971       24.54093       -6.95473
C         60.31810       23.32125       -6.23798
C         59.92137       23.34794       -4.76991
O         59.99256       22.30699       -4.13245
H         60.72875       25.18345       -7.22391
H         61.41902       23.17070       -6.26475
H         59.85828       22.45351       -6.76006
N         59.59988       24.51330       -4.13826
C         59.35815       24.60863       -2.69900
C         57.93056       24.22159       -2.37212
O         57.02376       24.79255       -2.96197
C         59.62267       26.05551       -2.20493
C         61.08073       26.47209       -2.42031
O         59.34287       26.15332       -0.82998
H         59.63596       25.38958       -4.67930
H         60.07571       23.96302       -2.14338
H         58.99703       26.77512       -2.77646
H         58.39985       26.45153       -0.74164
H         61.76203       25.79715       -1.85945
H         61.35457       26.44481       -3.49527
H         61.22908       27.51008       -2.05393
N         57.65278       23.31662       -1.38502
C         56.28696       23.01054       -0.95843
C         55.97705       23.54807        0.43619
O         54.81298       23.51883        0.80802
C         55.95180       21.49766       -1.14220
C         56.85677       20.49776       -0.37011
C         56.00834       21.15293       -2.64097
C         56.73475       20.55675        1.15177
H         58.43807       22.87107       -0.88698
H         55.56854       23.56792       -1.60013
H         54.89926       21.33037       -0.82080
H         57.92063       20.62075       -0.66377
H         56.55000       19.46786       -0.65855
H         57.03640       21.28236       -3.04182
H         55.69301       20.10097       -2.80915
H         55.31638       21.80658       -3.21420
H         55.67841       20.40349        1.45940
H         57.35080       19.74724        1.59787
H         57.11048       21.51090        1.55891
N         56.93525       24.08357        1.25553
C         56.59558       24.74008        2.51885
C         55.93850       26.06558        2.16001
O         56.56832       26.85418        1.47247
C         57.85223       24.92902        3.40313
C         58.49530       23.57710        3.74933
O         57.49203       25.55899        4.60691
H         57.92185       24.06385        0.96587
H         55.89914       24.09163        3.09688
H         58.61860       25.52927        2.85897
H         57.71081       26.52231        4.51513
H         57.77271       22.92814        4.29015
H         58.83274       23.04248        2.83697
H         59.38299       23.73238        4.39810
N         54.63498       26.31758        2.48676
C         53.86255       27.39488        1.86279
C         53.17180       28.30617        2.87983
O         52.46195       27.81293        3.74143
C         52.84203       26.72947        0.90854
C         52.11046       27.74532        0.03533
O         51.89731       25.97299        1.62385
H         54.13273       25.63367        3.07083
H         54.52071       28.01582        1.21795
H         53.40487       26.07268        0.20116
H         52.26966       25.05904        1.72993
H         52.83955       28.34229       -0.55137
H         51.44181       27.21406       -0.67387
H         51.49648       28.42085        0.65940
N         53.31422       29.66725        2.79003
C         52.61555       30.62106        3.67124
C         53.15991       32.06437        3.61227
O         52.51988       32.94800        4.17303
C         51.09023       30.61171        3.38227
C         50.71606       31.18067        1.99690
C         49.20292       31.12782        1.71052
C         48.36902       32.01687        2.65220
N         46.95054       31.97248        2.29620
H         53.90248       30.01173        2.02585
H         52.75755       30.29642        4.72507
H         50.59686       31.21968        4.16842
H         50.69544       29.57854        3.47309
H         51.23264       30.59014        1.21507
H         51.06086       32.23283        1.90251
H         48.84956       30.07557        1.77481
H         49.04288       31.48255        0.66876
H         48.72914       33.06744        2.58233
H         48.47682       31.67758        3.70368
H         46.58894       30.99464        2.38084
H         46.41379       32.58746        2.95021
H         46.81143       32.31771        1.31886
N         54.34774       32.38021        3.02776
C         54.90099       33.73194        2.95368
C         54.08509       34.58942        2.00670
O         53.93958       34.22045        0.84925
C         56.35348       33.64908        2.44142
C         57.25757       32.96120        3.48123
C         58.53528       32.50105        2.85708
O         59.61079       32.92511        3.24550
O         58.47912       31.55940        1.89319
H         54.93147       31.62656        2.64833
H         54.92423       34.19531        3.96589
H         56.77264       34.65740        2.22694
H         56.33853       33.07645        1.48692
H         56.78104       32.04854        3.89394
H         57.43529       33.66261        4.32687
N         53.55386       35.77154        2.42817
C         52.81237       36.66939        1.56367
H         51.79587       36.82895        1.97855
H         53.33735       37.64737        1.51671
H         52.71422       36.28035        0.52805
H         53.69698       36.06975        3.40477
Ca        60.27826       30.61938        0.90735
O         59.57242       28.00449        2.32730
H         58.62337       28.24371        2.47517
H         59.96740       27.99166        3.23501
O         58.19842       32.59755       -0.93448
H         58.38708       33.28274       -0.24475
H         57.26044       32.32775       -0.76728
O         61.97209       32.99901        0.74011
H         61.69503       33.09990        1.68470
H         62.78013       32.42859        0.78235

Ca 1.0



