%chk=apoCaM-CA-Ng.loop1.water3.frame977.chk
%nprocshared=20
%mem=10GB
%nosave
#b3lyp/svp scf=(tight,noincore,xqc) Test 
#IOP(5/87=12) Density=Current Pop=(MK,readradii) iop(6/33=2) iop(6/42=6)

apoCaM-CA-Ng.loop1.water3.frame977 

   0  1 
C         64.22387        2.60305       38.93290
C         63.90610        1.47759       39.86973
O         63.32294        0.49248       39.43974
H         65.32449        2.74030       38.88305
H         63.84613        2.38097       37.91180
H         63.75280        3.54040       39.29472
N         64.26634        1.56178       41.18070
C         64.03514        0.49466       42.14375
C         62.85973        0.82346       43.11742
O         62.64644        2.17828       43.42749
C         65.39578       -0.09085       42.67373
C         66.55832        0.69213       43.28765
O         67.61049        0.09281       43.44525
O         66.52541        1.98644       43.65460
H         64.74042        2.41814       41.50229
H         63.59996       -0.38933       41.62864
H         65.85496       -0.52796       41.75876
H         65.17847       -0.94417       43.35022
N         62.83560       -0.06477       44.28507
C         61.78662        0.19869       45.28695
C         62.44764        0.21303       46.63895
O         63.07623       -0.76574       47.01839
C         60.65377       -0.85233       45.30783
C         59.65380       -0.69658       44.15511
C         58.44891       -1.62595       44.38028
C         57.32268       -1.35830       43.37485
N         56.16011       -2.19972       43.66315
H         62.83841       -1.06846       43.98813
H         61.30784        1.18988       45.13328
H         60.07086       -0.67311       46.24059
H         61.06203       -1.88599       45.35953
H         60.13617       -0.89918       43.17489
H         59.28420        0.35291       44.16229
H         58.03667       -1.44100       45.39735
H         58.77533       -2.68729       44.32003
H         57.68188       -1.55468       42.34137
H         57.01623       -0.29016       43.44587
H         55.39965       -1.98271       42.97939
H         56.41591       -3.21023       43.58120
H         55.80522       -2.00517       44.62850
N         62.30331        1.30314       47.43797
C         62.88694        1.41128       48.76779
C         62.32585        2.62857       49.48951
O         62.08203        3.64165       48.84864
C         64.42916        1.43836       48.71655
C         64.97897        2.50904       47.81167
O         64.74736        3.81086       48.06307
O         65.65801        2.19645       46.84696
H         61.71323        2.07365       47.09016
H         62.56630        0.51178       49.33005
H         64.79155        0.45394       48.35343
H         64.83286        1.57482       49.74265
N         62.00918        2.61671       50.81167
C         62.30696        1.55902       51.75875
C         61.05264        0.87867       52.23094
O         60.03419        0.93622       51.55526
H         61.54312        3.44699       51.19481
H         62.81598        2.03950       52.62137
H         63.01044        0.79082       51.38546
N         61.06910        0.19731       53.40784
C         59.91200       -0.50402       53.94716
C         58.73231        0.44424       54.10943
O         57.70022        0.20826       53.49627
C         60.29658       -1.16622       55.29162
C         59.16758       -1.93842       55.91150
O         58.66735       -2.88184       55.32072
O         58.71742       -1.60362       57.13610
H         61.95147        0.18569       53.94394
H         59.62758       -1.31085       53.23376
H         60.63896       -0.38772       56.00791
H         61.14553       -1.86465       55.12324
N         58.80673        1.52805       54.93162
C         57.67837        2.41514       55.16792
C         57.31224        3.32023       54.00440
O         56.35243        4.06205       54.16100
H         59.67227        1.69383       55.46644
H         57.92690        3.08611       56.01834
H         56.79900        1.80555       55.46908
N         58.03464        3.37544       52.84588
C         57.75144        4.32979       51.77156
C         58.91616        5.28481       51.62839
O         59.99858        4.98318       52.10418
C         57.50265        3.59502       50.43163
C         56.27965        2.68410       50.50176
O         57.29505        4.52242       49.39401
H         58.85515        2.76708       52.73603
H         56.85848        4.94252       52.02396
H         58.38942        2.95208       50.20551
H         58.10645        4.51805       48.82075
H         56.14123        2.17396       49.52434
H         56.40728        1.91107       51.28726
H         55.37006        3.28358       50.72050
N         58.75951        6.48706       51.00366
C         59.86846        7.42209       50.80959
C         60.45678        7.88987       52.15281
O         61.52989        8.47213       52.14261
C         59.44925        8.61630       49.87768
C         58.78625        8.15264       48.54265
C         60.62925        9.55565       49.54855
C         59.63791        7.21315       47.68340
H         57.82147        6.72193       50.65294
H         60.67289        6.85833       50.28749
H         58.68608        9.22525       50.41154
H         58.52732        9.04986       47.93882
H         57.82390        7.64192       48.73963
H         60.29320       10.37141       48.87331
H         61.02344       10.05552       50.45304
H         61.45731        9.00480       49.05584
H         60.58914        7.69275       47.37916
H         59.85479        6.26914       48.22378
H         59.07325        6.95172       46.76356
N         59.84668        7.61844       53.34908
C         60.43305        7.95084       54.64536
C         59.50740        8.85564       55.43644
O         58.42857        9.20015       54.97731
C         60.77862        6.65447       55.44302
C         59.56695        5.76659       55.75975
O         61.78091        5.91604       54.79304
H         58.93672        7.14218       53.36413
H         61.38532        8.50891       54.51566
H         61.21407        6.94056       56.42073
H         61.43093        5.63155       53.91484
H         59.89260        4.89520       56.36618
H         58.81221        6.33296       56.34588
H         59.09544        5.38745       54.83269
N         59.90741        9.27722       56.66544
C         59.14531       10.15783       57.52882
C         59.98638       11.39105       57.78291
O         59.53830       12.48970       57.48130
C         58.76047        9.39937       58.83325
C         58.01535       10.29166       59.83260
O         59.89686        8.85718       59.45680
H         60.82287        8.96436       57.01237
H         58.19341       10.47249       57.04405
H         58.08288        8.56697       58.52678
H         59.59697        8.07384       59.98810
H         57.72792        9.69478       60.72485
H         58.66431       11.12672       60.17307
H         57.09463       10.70706       59.37336
N         61.21352       11.27570       58.36261
C         62.02674       12.40811       58.76133
C         63.49234       12.18461       58.44328
O         63.98861       11.07870       58.62059
C         61.84216       12.63537       60.27216
C         62.32696       11.46435       61.15335
C         61.96200       11.63782       62.62925
C         62.56515       12.89946       63.26048
N         62.22494       12.97376       64.67887
H         61.54744       10.34143       58.63188
H         61.67154       13.34394       58.27357
H         60.75822       12.80436       60.45600
H         62.38988       13.56082       60.54858
H         63.42798       11.35028       61.06124
H         61.84897       10.51857       60.82597
H         62.33739       10.74477       63.17539
H         60.85486       11.66597       62.72770
H         62.16809       13.80563       62.75518
H         63.67161       12.88380       63.14443
H         61.18545       12.98995       64.79632
H         62.62534       12.15135       65.18573
H         62.62578       13.85154       65.08025
N         64.28125       13.24072       58.11306
C         65.73169       13.14041       58.03027
C         66.18815       12.14431       56.96548
O         66.93724       11.24710       57.32491
C         66.36172       14.54346       57.88820
C         67.88885       14.51646       58.04378
C         68.44669       15.91095       58.03330
O         68.06394       16.79844       58.97249
O         69.25797       16.24365       57.18477
H         63.84042       14.16829       58.00749
H         66.08935       12.76818       59.01913
H         65.95088       15.17371       58.70895
H         66.08736       15.02412       56.93129
H         68.34034       13.91883       57.22267
H         68.15910       14.04572       59.01428
N         65.79874       12.17238       55.65740
C         64.85524       13.10969       55.08933
H         63.87161       13.02058       55.59348
H         65.23335       14.14468       55.15195
H         64.70176       12.87370       54.01482
H         66.17341       11.44649       55.02601
Ca        64.61615        2.97799       43.99712
O         67.53064        4.29251       45.64286
H         68.13860        3.54464       45.41557
H         68.11322        4.96046       46.08391
O         64.99056        6.52760       46.14347
H         64.58250        6.65140       47.03722
H         65.80599        7.08910       46.16302
O         62.34326        4.51405       45.66401
H         61.47901        4.06771       45.47899
H         62.20048        4.98559       46.52254

Ca 1.0



