%chk=apoCaM-CA-Ng.loop1.water3.frame1189.chk
%nprocshared=20
%mem=10GB
%nosave
#b3lyp/svp scf=(tight,noincore,xqc) Test 
#IOP(5/87=12) Density=Current Pop=(MK,readradii) iop(6/33=2) iop(6/42=6)

apoCaM-CA-Ng.loop1.water3.frame1189 

   0  1 
C         21.17039        3.96459       90.28916
C         22.62847        4.17116       90.02689
O         23.25145        4.95270       90.73283
H         20.58924        4.23304       89.38176
H         20.98820        2.90205       90.54787
H         20.83086        4.60686       91.13039
N         23.23532        3.52413       88.99126
C         24.63568        3.72936       88.65090
C         24.71001        4.51669       87.36626
O         25.35753        4.10085       86.41156
C         25.39298        2.39027       88.57972
C         25.32255        1.64098       89.87903
O         25.81500        2.18911       91.00623
O         24.82548        0.52690       89.91696
H         22.67071        2.90667       88.38762
H         25.13388        4.36034       89.41533
H         26.46329        2.58358       88.34499
H         24.96410        1.76591       87.76477
N         24.07366        5.71795       87.30026
C         24.20211        6.62562       86.17273
C         25.67131        7.00667       86.03215
O         26.21339        6.78186       84.96171
C         23.29153        7.88302       86.29302
C         21.80271        7.58245       86.57343
C         21.11098        6.75220       85.48178
C         19.66546        6.37085       85.85422
N         18.80184        7.53485       86.06078
H         23.51350        6.00801       88.11433
H         23.87775        6.09502       85.25028
H         23.37455        8.47180       85.35317
H         23.62830        8.55046       87.10581
H         21.28316        8.55923       86.66749
H         21.70048        7.06167       87.54680
H         21.65617        5.79698       85.33725
H         21.12408        7.31476       84.52316
H         19.67051        5.74664       86.77604
H         19.24806        5.75311       85.02858
H         17.82466        7.20288       86.22915
H         19.10360        8.07478       86.90272
H         18.81095        8.14882       85.21479
N         26.43100        7.51228       87.05846
C         25.96844        7.82318       88.41444
C         26.59091        6.91884       89.47296
O         27.48865        6.14061       89.17285
C         26.17920        9.31555       88.71069
C         27.58580        9.74672       88.42821
O         28.61837        9.16082       89.05890
O         27.79667       10.59481       87.57656
H         27.43151        7.67122       86.85625
H         24.89475        7.64237       88.52521
H         25.91115        9.53832       89.76134
H         25.49889        9.90499       88.05767
N         26.04700        6.89806       90.72586
C         26.39628        5.92431       91.75127
C         27.65765        6.24364       92.51837
O         28.28279        7.26224       92.28674
H         25.22961        7.50085       90.91304
H         26.45188        4.91205       91.30006
H         25.58093        5.90375       92.50701
N         28.07507        5.36156       93.47554
C         29.23659        5.55787       94.35198
C         28.87418        5.15388       95.79132
O         27.80642        4.58994       95.97521
C         30.37041        4.65595       93.82401
C         30.78653        5.06842       92.44116
O         31.28889        6.29947       92.22917
O         30.67594        4.29107       91.50688
H         27.55854        4.47249       93.55267
H         29.55520        6.61950       94.33774
H         30.02172        3.59893       93.81502
H         31.26923        4.70155       94.45812
N         29.68481        5.33730       96.88416
C         30.91776        6.10543       96.96447
C         30.61529        7.57682       96.96757
O         29.83299        8.00020       97.80973
H         29.36331        4.92421       97.77509
H         31.65637        5.81045       96.20147
H         31.38784        5.90445       97.95201
N         31.17496        8.42078       96.05766
C         30.81413        9.83287       95.98740
C         29.89382       10.02702       94.81205
O         29.83720        9.17285       93.94109
C         32.06281       10.74822       95.90292
C         32.90944       10.66422       97.17583
O         31.66628       12.08386       95.71655
H         31.80130        8.03271       95.33386
H         30.22014       10.12256       96.88233
H         32.67085       10.41734       95.02712
H         32.44088       12.56582       95.32298
H         33.25877        9.62679       97.35364
H         33.79898       11.32374       97.07825
H         32.31618       11.00696       98.05110
N         29.06891       11.10678       94.77647
C         28.09437       11.35925       93.73032
C         28.88164       11.59436       92.41111
O         28.61657       10.59458       91.46304
C         26.99538       10.24563       93.66701
C         26.36017        9.96923       95.06208
C         25.87608       10.59899       92.66207
C         26.21314        8.46992       95.32993
H         29.11212       11.78639       95.55165
H         27.56349       12.29468       94.01861
H         27.49850        9.32510       93.32443
H         25.37976       10.48662       95.16364
H         26.99739       10.35076       95.88406
H         26.26144       10.78728       91.64432
H         25.13260        9.77698       92.59620
H         25.35431       11.52684       92.98249
H         27.22362        8.00149       95.34625
H         25.75026        8.31123       96.32663
H         25.59683        7.97360       94.55319
N         28.54427       12.91115       91.88098
C         29.10145       13.25798       90.56582
C         30.42073       14.03839       90.59646
O         30.85598       14.40549       89.51542
C         28.00316       14.04515       89.81190
C         27.60510       15.33928       90.53202
O         26.85444       13.24602       89.69016
H         28.65363       13.67425       92.58682
H         29.29474       12.34161       89.96452
H         28.36648       14.32323       88.79556
H         27.03948       12.58337       88.97710
H         27.18481       15.12203       91.53752
H         28.47824       16.01442       90.64416
H         26.82053       15.86230       89.94755
N         31.10959       14.34914       91.74191
C         32.32959       15.16547       91.72732
C         33.43150       14.43054       90.97225
O         34.06913       13.57006       91.56021
C         32.76816       15.51941       93.17842
C         33.97678       16.45906       93.22196
O         31.70558       16.14951       93.85135
H         30.75188       14.02962       92.65101
H         32.08567       16.12022       91.20942
H         33.05884       14.58207       93.71390
H         31.29364       15.47835       94.45725
H         34.85993       16.00299       92.72874
H         33.73574       17.42093       92.72164
H         34.24371       16.67062       94.28049
N         33.64424       14.67147       89.64055
C         34.55504       13.91738       88.77406
C         34.18684       12.44135       88.72048
O         34.06888       11.80992       89.75939
C         36.03316       14.07807       89.15030
C         36.47307       15.54711       89.17044
C         37.99858       15.63589       89.27666
C         38.47075       17.08699       89.40692
N         39.93158       17.15219       89.43651
H         33.08683       15.41010       89.18550
H         34.46353       14.33124       87.74329
H         36.61775       13.54190       88.36762
H         36.25852       13.60943       90.13132
H         35.98827       16.05577       90.03223
H         36.15992       16.05725       88.23189
H         38.44299       15.18548       88.36037
H         38.34946       15.06281       90.16182
H         38.06098       17.51862       90.34729
H         38.09576       17.68873       88.54933
H         40.30432       16.57797       90.22739
H         40.32173       16.79909       88.53216
H         40.22888       18.14559       89.56782
N         34.04488       11.79338       87.53191
C         33.64308       10.39274       87.48546
C         32.19487       10.25620       87.91890
O         31.97250        9.56164       88.89813
C         33.91511        9.73133       86.11912
C         35.42742        9.60497       85.87458
C         35.71176        8.93675       84.56317
O         35.35519        9.45710       83.51838
O         36.37469        7.76473       84.53232
H         34.25094       12.29710       86.65611
H         34.26645        9.81493       88.20851
H         33.43625       10.28132       85.28737
H         33.49315        8.70110       86.13532
H         35.87337        8.99416       86.69206
H         35.91086       10.60435       85.88309
N         31.13556       10.86018       87.30527
C         31.17457       11.74666       86.16079
H         32.18733       11.95618       85.79159
H         30.58220       11.30065       85.33423
H         30.71765       12.71882       86.44013
H         30.20484       10.68373       87.69827
Ca        30.40017        9.17884       91.26896
O         31.17101        6.77874       89.07614
H         32.05444        6.33999       88.98904
H         30.56894        6.06688       89.40785
O         33.38177        8.50930       91.68134
H         33.81064        7.61902       91.62351
H         33.87712        9.06739       91.03070
O         31.92549       11.37923       92.15045
H         32.88066       11.22236       92.35164
H         31.90446       11.61885       91.18982

Ca 1.0



