%chk=apoCaM-CA-Ng.loop1.water5.frame367.chk
%nprocshared=20
%mem=10GB
%nosave
#b3lyp/svp scf=(tight,noincore,xqc) Test 
#IOP(5/87=12) Density=Current Pop=(MK,readradii) iop(6/33=2) iop(6/42=6)

apoCaM-CA-Ng.loop1.water5.frame367 

   0  1 
C         28.55214       89.21005       32.33206
C         28.93029       88.59814       31.01882
O         29.92283       89.01573       30.43786
H         27.52988       89.63659       32.26801
H         28.58251       88.43338       33.12380
H         29.26172       90.02242       32.60227
N         28.17049       87.60009       30.48007
C         28.49709       86.96239       29.21067
C         27.42110       87.28537       28.18502
O         26.93630       86.38196       27.51745
C         28.65830       85.43505       29.40563
C         29.72305       85.07711       30.40644
O         30.68068       84.40144       30.06602
O         29.60684       85.46080       31.69258
H         27.32332       87.29103       30.98195
H         29.44966       87.36196       28.81976
H         28.91175       84.96991       28.42690
H         27.69520       85.00141       29.75599
N         26.96312       88.56638       28.04533
C         25.86642       88.93244       27.15291
C         26.20658       90.19581       26.36264
O         26.51780       91.18841       27.00689
C         24.58654       89.21031       27.97929
C         24.09978       88.02546       28.83841
C         23.64494       86.80238       28.02225
C         23.17772       85.67437       28.95436
N         22.76897       84.49404       28.19310
H         27.34037       89.29552       28.66955
H         25.64119       88.09917       26.48517
H         23.76235       89.50833       27.29302
H         24.78187       90.06245       28.66678
H         23.23033       88.37760       29.43597
H         24.90242       87.73222       29.54843
H         24.47579       86.41431       27.40518
H         22.81394       87.09466       27.34383
H         22.32207       86.02914       29.57083
H         24.00986       85.39273       29.63823
H         21.97048       84.73074       27.56079
H         23.57268       84.13351       27.62881
H         22.46460       83.74699       28.85874
N         26.11715       90.31975       24.99898
C         25.76124       89.28333       24.03341
C         24.40722       88.64741       24.33989
O         24.35793       87.45960       24.62967
C         26.91365       88.26526       23.86457
C         28.12643       88.87535       23.20235
O         28.12519       90.15789       22.78782
O         29.10864       88.18433       22.98955
H         26.30449       91.25573       24.60465
H         25.66200       89.75362       23.03699
H         26.58084       87.44826       23.19080
H         27.19784       87.82243       24.83973
N         23.23480       89.33587       24.24594
C         23.14147       90.69385       23.72567
C         21.70319       91.14678       23.52977
O         20.79245       90.48869       24.01308
H         22.37302       88.81588       24.47058
H         23.59911       90.68055       22.71724
H         23.68935       91.41561       24.36745
N         21.38024       92.22176       22.75342
C         22.34574       93.04122       22.02320
C         22.44847       92.56837       20.58119
O         21.72592       91.65857       20.19455
C         21.98016       94.54458       22.11687
C         20.68849       94.91978       21.42451
O         19.50405       94.45151       21.86121
O         20.70892       95.68900       20.47680
H         20.37751       92.37428       22.57923
H         23.35431       92.92829       22.47127
H         22.80166       95.13140       21.65237
H         21.92176       94.85151       23.18271
N         23.33662       93.14368       19.71967
C         23.42769       92.74515       18.32478
C         23.95103       91.33726       18.12183
O         23.77334       90.81940       17.02803
H         23.93358       93.91850       20.04437
H         24.09742       93.43620       17.76868
H         22.41435       92.83348       17.87635
N         24.67367       90.68460       19.07994
C         25.22260       89.34067       18.89076
C         24.82652       88.44119       20.04795
O         24.51306       88.95478       21.10905
C         26.76700       89.42349       18.81790
C         27.23712       90.29112       17.64534
O         27.30702       88.13779       18.67081
H         24.89341       91.17528       19.96076
H         24.84265       88.89039       17.94710
H         27.13124       89.87709       19.77191
H         28.23569       88.18001       19.02016
H         28.34727       90.32918       17.62905
H         26.88182       89.86455       16.68316
H         26.86074       91.33031       17.74475
N         24.83478       87.08115       19.92604
C         24.61957       86.18676       21.06643
C         25.75245       85.16649       21.23630
O         25.71526       84.43648       22.21712
C         23.22413       85.50005       21.00607
C         23.07643       84.55520       19.78830
C         22.11604       86.57214       21.04624
C         21.77967       83.74009       19.81814
H         24.99276       86.67533       18.99154
H         24.62027       86.77910       22.00535
H         23.12145       84.88787       21.93066
H         23.91349       83.82491       19.79495
H         23.12438       85.13281       18.84082
H         21.11028       86.11588       21.13205
H         22.24697       87.22472       21.93649
H         22.14338       87.20581       20.13456
H         21.72317       83.14214       20.75328
H         20.88489       84.39022       19.74573
H         21.75881       83.04412       18.95386
N         26.77682       85.03361       20.33580
C         27.83370       84.03174       20.48740
C         28.68149       84.28907       21.72125
O         28.86413       85.43588       22.10508
C         28.74329       83.90497       19.23136
C         29.49946       85.18709       18.84931
O         28.01181       83.42280       18.13095
H         26.79263       85.62732       19.50147
H         27.34475       83.03806       20.60337
H         29.51336       83.13584       19.46214
H         27.33974       84.10745       17.88033
H         28.79895       85.98276       18.53804
H         30.11655       85.55536       19.69459
H         30.17252       84.98059       17.99077
N         29.22723       83.23753       22.39680
C         30.02180       83.39444       23.61445
C         31.32500       84.14954       23.37804
O         31.71000       84.36924       22.23773
C         30.32185       82.01239       24.26447
C         31.18656       81.09886       23.37863
O         29.11854       81.34779       24.55077
H         29.01492       82.28987       22.05239
H         29.40892       83.98442       24.33233
H         30.89033       82.16050       25.21210
H         28.73934       81.77580       25.36237
H         31.38139       80.14178       23.90721
H         30.68393       80.85845       22.41968
H         32.16439       81.57138       23.15229
N         32.04975       84.58064       24.45158
C         33.33828       85.26261       24.36027
C         33.25055       86.71901       24.79582
O         34.26245       87.40026       24.69225
C         34.35017       84.54635       25.28918
C         34.69837       83.10709       24.88414
C         35.63408       83.06573       23.66819
C         36.05348       81.62728       23.34008
N         37.04909       81.60775       22.26856
H         31.65984       84.42384       25.39438
H         33.70414       85.27642       23.31141
H         33.90296       84.52280       26.30846
H         35.30086       85.11919       25.36648
H         33.77569       82.51273       24.71621
H         35.24832       82.64883       25.73576
H         36.54819       83.65134       23.91312
H         35.14733       83.51962       22.77976
H         35.15805       81.04250       23.03362
H         36.49385       81.14847       24.24355
H         36.66967       82.06816       21.40999
H         37.91584       82.10471       22.58045
H         37.29487       80.61628       22.04603
N         32.10955       87.27607       25.30101
C         32.05418       88.66266       25.75857
C         33.07268       88.87191       26.86794
O         32.96741       88.23012       27.90516
C         30.63250       88.98628       26.27390
C         30.44503       90.42017       26.79416
C         30.54279       91.43138       25.69448
O         31.38531       92.31226       25.73537
O         29.66573       91.37886       24.67513
H         31.25839       86.70179       25.38203
H         32.28238       89.32785       24.89602
H         30.41115       88.29316       27.10425
H         29.88840       88.79014       25.47417
H         31.18208       90.63649       27.59730
H         29.42945       90.50595       27.23615
N         34.10126       89.74836       26.70590
C         35.09574       89.96256       27.73470
H         35.85071       90.69869       27.38563
H         34.61159       90.35592       28.65355
H         35.61388       89.00766       27.96819
H         34.19086       90.27352       25.82294
Ca        29.60239       92.85785       22.96985
O         29.88607       95.35388       24.53783
H         30.44801       96.14722       24.35297
H         30.48564       94.73515       25.02503
O         30.54387       94.93374       20.88159
H         31.11360       95.49323       21.46709
H         31.06498       94.83635       20.04542
O         31.26324       90.69990       21.37913
H         31.83405       90.36093       22.11383
H         30.49298       90.07888       21.35626
O         32.50624       93.19378       22.71912
H         32.73023       93.19783       23.68266
H         33.33224       93.50178       22.27043
O         28.62900       92.48246       19.89067
H         28.21833       93.27993       19.47131
H         29.49659       92.37657       19.42526

Ca 1.0



