%chk=apoCaM-CA-Ng.loop1.water2.frame460.chk
%nprocshared=20
%mem=10GB
%nosave
#b3lyp/svp scf=(tight,noincore,xqc) Test 
#IOP(5/87=12) Density=Current Pop=(MK,readradii) iop(6/33=2) iop(6/42=6)

apoCaM-CA-Ng.loop1.water2.frame460 

   0  1 
C         60.81962       65.75895       71.63016
C         59.70826       66.24229       70.74530
O         59.15908       65.46690       69.97587
H         61.74007       66.34549       71.42344
H         60.53499       65.90511       72.69445
H         61.02949       64.68316       71.45873
N         59.31553       67.53964       70.82702
C         58.21901       68.11845       70.05678
C         58.48694       68.25041       68.54986
O         57.65268       68.85049       67.90033
C         57.82256       69.48677       70.67659
C         58.92615       70.51185       70.67796
O         59.41396       70.90489       69.63192
O         59.36665       71.01843       71.84561
H         59.78744       68.12827       71.53195
H         57.31537       67.48180       70.18236
H         57.50756       69.31167       71.72923
H         56.93897       69.90130       70.14773
N         59.57239       67.73343       67.89901
C         59.81571       67.96792       66.47063
C         59.71405       66.70957       65.61675
O         60.30019       65.70978       66.00640
C         61.22154       68.56736       66.27227
C         61.28650       70.03977       66.68357
C         62.67823       70.61703       66.41213
C         62.69032       72.13763       66.60582
N         64.02679       72.67997       66.36637
H         60.26725       67.17783       68.41328
H         59.08653       68.68019       66.08412
H         61.47576       68.53629       65.19068
H         61.97893       67.95567       66.81020
H         61.02571       70.16600       67.75395
H         60.55151       70.59441       66.06507
H         62.97146       70.40427       65.35996
H         63.41156       70.13225       67.09279
H         62.36583       72.39407       67.63805
H         61.97504       72.59996       65.88744
H         63.99618       73.72071       66.45965
H         64.69777       72.29443       67.06982
H         64.34939       72.43661       65.40128
N         59.12075       66.68028       64.36777
C         58.41032       67.76993       63.67478
C         59.21315       69.07113       63.61833
O         58.81035       70.04213       64.23860
C         56.98278       67.97075       64.25008
C         56.02130       66.86181       63.90848
O         54.74443       66.94212       64.32819
O         56.36231       65.91701       63.21723
H         59.21280       65.80223       63.83329
H         58.23337       67.48605       62.61418
H         56.53201       68.86989       63.78509
H         57.01629       68.11173       65.34700
N         60.33252       69.23313       62.86658
C         60.85092       68.23610       61.94481
C         61.99626       68.78746       61.10672
O         62.44706       69.89790       61.35275
H         60.77641       70.16274       62.91641
H         60.03374       67.97966       61.23716
H         61.16920       67.32375       62.49223
N         62.49847       68.12246       60.03100
C         62.05887       66.81822       59.56072
C         61.22358       67.01658       58.31663
O         61.67934       67.66554       57.38400
C         63.29164       65.94683       59.26838
C         62.90238       64.59130       58.74697
O         63.26659       64.23324       57.63818
O         62.14497       63.76859       59.49711
H         63.20548       68.61456       59.46042
H         61.44503       66.29781       60.32635
H         63.88101       65.81679       60.20100
H         63.93660       66.45999       58.51964
N         59.97449       66.47862       58.23552
C         59.10410       66.71324       57.10127
C         58.67434       68.15470       57.10639
O         58.95629       68.88475       56.16769
H         59.62202       65.88793       59.00455
H         58.18876       66.08812       57.19677
H         59.62063       66.42715       56.15952
N         57.96339       68.61431       58.16989
C         57.48707       69.97847       58.32809
C         57.96811       70.55395       59.65556
O         57.82317       69.92080       60.69227
C         55.94375       70.04854       58.21390
C         55.20032       68.97280       59.00970
O         55.57932       69.92371       56.86192
H         57.72837       67.94155       58.91682
H         57.86665       70.63630       57.51439
H         55.64570       71.06051       58.58582
H         54.86898       70.59570       56.68344
H         55.39310       67.97088       58.57194
H         55.52295       68.94903       60.06305
H         54.10743       69.16397       58.95877
N         58.49246       71.81283       59.68207
C         58.92984       72.52598       60.88888
C         57.78514       72.83448       61.88448
O         58.05492       73.49038       62.87939
C         59.64725       73.86861       60.48787
C         58.66025       74.89435       59.85343
C         60.86653       73.59492       59.57729
C         59.29872       76.23880       59.49783
H         58.58100       72.29023       58.77541
H         59.68687       71.89897       61.40983
H         60.05108       74.32315       61.42029
H         57.85045       75.10815       60.58290
H         58.19084       74.48525       58.93556
H         61.54890       72.86276       60.05725
H         60.57026       73.20306       58.58287
H         61.45382       74.52081       59.41031
H         60.04683       76.12494       58.68691
H         58.51270       76.93139       59.12819
H         59.78004       76.69155       60.38994
N         56.49089       72.45121       61.66459
C         55.33070       72.89829       62.44948
C         55.34701       72.59507       63.94830
O         54.55233       73.19874       64.65452
C         54.02771       72.29999       61.84561
C         53.97920       70.76697       62.03153
O         53.96390       72.62285       60.47901
H         56.28759       71.90040       60.82773
H         55.30341       74.00565       62.34754
H         53.14895       72.74775       62.36109
H         53.09444       72.28656       60.13823
H         53.07612       70.33821       61.55061
H         54.87488       70.29131       61.60077
H         53.95120       70.49058       63.10315
N         56.14213       71.63086       64.49014
C         56.15521       71.24453       65.90906
C         54.81349       70.65875       66.37541
O         53.82440       70.74767       65.66177
C         56.65214       72.42487       66.79700
C         58.08452       72.84082       66.42649
O         56.59395       72.11357       68.16438
H         56.75836       71.12055       63.85056
H         56.88450       70.41536       66.01155
H         55.99377       73.30336       66.64513
H         57.27893       71.42132       68.33999
H         58.78213       71.99444       66.59387
H         58.14920       73.14554       65.36570
H         58.41031       73.69359       67.05758
N         54.73928       69.96942       67.55544
C         53.53060       69.35297       68.08951
C         53.61304       67.81992       68.05181
O         52.62268       67.18544       68.38111
C         53.35710       69.85920       69.55016
C         52.04201       69.48637       70.27086
C         50.77733       70.12245       69.66767
C         50.77697       71.65736       69.79059
N         49.53277       72.22735       69.27871
H         55.58816       69.85645       68.11559
H         52.66131       69.65791       67.47040
H         53.46965       70.96159       69.57138
H         54.20122       69.45150       70.15082
H         52.11684       69.81594       71.33046
H         51.91993       68.38662       70.30260
H         49.90298       69.73317       70.23401
H         50.65701       69.81634       68.60774
H         51.62343       72.09526       69.22216
H         50.89030       71.93761       70.86227
H         49.42904       72.00300       68.26267
H         48.71603       71.85101       69.81244
H         49.56268       73.26630       69.39533
N         54.74178       67.14338       67.66303
C         54.82130       65.68249       67.68109
C         54.60652       65.16919       69.09346
O         55.38324       65.50055       69.97924
C         56.19279       65.17612       67.14578
C         56.33724       63.63787       67.20581
C         55.28403       62.92515       66.40095
O         54.39435       62.31312       66.96984
O         55.33759       62.90745       65.05574
H         55.56844       67.66646       67.35529
H         54.02995       65.28484       67.00873
H         57.01149       65.62084       67.75354
H         56.33339       65.51161       66.10317
H         56.26049       63.32354       68.26799
H         57.34116       63.32286       66.84938
N         53.57339       64.32569       69.36379
C         53.35900       63.76691       70.67939
H         52.46704       63.10494       70.66643
H         54.24206       63.16282       70.97961
H         53.19368       64.57936       71.41738
H         52.92420       64.05665       68.60927
Ca        57.24274       63.43564       63.96262
O         54.47635       64.03389       61.24683
H         54.43874       64.99675       61.01834
H         53.81912       63.60906       60.64000
O         54.66659       60.79224       62.90407
H         53.83160       60.94134       63.41518
H         55.24823       60.28289       63.52289

Ca 1.0



