%chk=apoCaM-CA-Ng.loop4.water3.frame328.chk
%nprocshared=20
%mem=10GB
%nosave
#b3lyp/svp scf=(tight,noincore,xqc) Test 
#IOP(5/87=12) Density=Current Pop=(MK,readradii) iop(6/33=2) iop(6/42=6)

apoCaM-CA-Ng.loop4.water3.frame328 

   -3  1 
C         56.60217       53.70264       57.11150
C         57.00609       52.69139       56.08085
O         58.04564       52.87673       55.46975
H         55.65162       53.42018       57.60909
H         57.39835       53.77829       57.88285
H         56.47340       54.69383       56.62819
N         56.24717       51.57863       55.85308
C         56.58950       50.53075       54.89519
C         57.93079       49.91096       55.25504
O         58.89356       50.06379       54.52784
C         56.36753       50.96940       53.42080
C         57.17459       52.11934       52.89340
O         58.37972       52.01946       52.75484
O         56.55493       53.24937       52.50173
H         55.39458       51.44147       56.41665
H         55.84747       49.70756       55.00648
H         55.29465       51.24936       53.33187
H         56.53621       50.09550       52.75417
N         58.01191       49.18802       56.41217
C         59.16267       48.50002       57.00962
C         59.70747       47.36006       56.14664
O         59.54519       46.21326       56.54132
C         60.28679       49.45694       57.49848
C         61.28989       48.72936       58.44567
C         59.72339       50.71224       58.18491
C         60.71628       48.29787       59.80938
H         57.13648       49.10968       56.95452
H         58.74085       48.03058       57.92291
H         60.85164       49.81047       56.61280
H         62.13650       49.41497       58.65302
H         61.70592       47.83388       57.93630
H         59.13427       51.31330       57.46517
H         59.06557       50.45320       59.03876
H         60.55390       51.34850       58.55019
H         61.51069       47.80642       60.40854
H         60.36291       49.17432       60.39107
H         59.88407       47.57353       59.70993
N         60.36945       47.58224       54.97115
C         60.86411       46.50446       54.12651
C         62.10052       45.84470       54.73664
O         62.01667       44.65121       54.99011
C         61.07768       46.96884       52.66392
C         59.80488       47.42725       51.99270
O         58.62819       47.44405       52.65067
O         59.83946       47.78599       50.82665
H         60.52180       48.53868       54.64146
H         60.06691       45.72842       54.04446
H         61.47385       46.11185       52.07660
H         61.79192       47.80278       52.59303
N         63.28065       46.48140       55.02605
C         63.55257       47.90182       54.82028
C         64.95483       48.32448       55.25478
O         65.70085       47.48338       55.73556
H         64.02035       45.89162       55.43593
H         62.81690       48.48029       55.40767
H         63.47719       48.12144       53.75275
N         65.42854       49.60810       55.15051
C         64.74539       50.77958       54.60426
C         63.44546       51.04347       55.33998
O         62.38388       50.85573       54.76178
C         64.59291       50.70596       53.06540
C         64.24743       52.05655       52.47938
O         65.01441       52.59644       51.69835
O         63.10602       52.68442       52.81433
H         66.38180       49.78022       55.50826
H         65.41538       51.65546       54.75565
H         63.82811       49.97432       52.75044
H         65.56934       50.39400       52.63521
N         63.41184       51.51559       56.61336
C         64.56903       51.93887       57.37577
C         65.32798       50.81421       58.00875
O         64.71921       49.84176       58.43136
H         62.48937       51.68282       57.03624
H         64.19198       52.50435       58.24834
H         65.20416       52.65819       56.81777
N         66.65084       50.97864       58.29318
C         67.34829       50.08419       59.20920
C         66.77909       50.24093       60.62168
O         67.07553       49.40452       61.46440
C         68.86400       50.39359       59.25652
C         69.56885       50.25534       57.89409
C         69.53803       48.84651       57.36049
N         70.15142       47.84080       58.02731
O         68.96919       48.61415       56.30443
H         67.13696       51.81427       57.93437
H         67.20033       49.03847       58.85827
H         69.36115       49.72178       59.99024
H         69.00204       51.43841       59.61409
H         70.63132       50.56186       58.00238
H         69.09939       50.94556       57.16179
H         70.65298       48.01990       58.90929
H         70.13822       46.88063       57.65288
N         66.00524       51.32123       60.96449
C         65.45638       51.55012       62.29495
C         66.12165       52.74647       62.97012
O         65.75442       53.03801       64.09832
C         63.90657       51.72816       62.24320
C         63.22498       50.50602       61.61370
C         63.46355       53.00886       61.51142
H         65.82638       52.05669       60.26803
H         65.66406       50.67314       62.94768
H         63.53868       51.80719       63.29046
H         62.12063       50.62005       61.65083
H         63.52223       50.39495       60.55380
H         63.49890       49.58128       62.16347
H         63.89169       53.90987       61.99827
H         63.77047       53.00174       60.44935
H         62.35722       53.10215       61.54876
N         67.13071       53.45606       62.36988
C         67.83877       54.54518       63.03881
C         67.81405       55.85506       62.25204
O         68.33138       56.83273       62.78239
C         69.29794       54.10497       63.27634
C         69.38146       52.83275       64.08458
N         68.90767       52.78020       65.35105
O         69.88628       51.83699       63.58705
H         67.47193       53.18224       61.43917
H         67.37416       54.76124       64.02441
H         69.86022       54.90184       63.80949
H         69.78574       53.93294       62.29276
H         68.48498       53.60907       65.79276
H         68.96722       51.90629       65.89447
N         67.24383       55.98452       61.01470
C         67.19638       57.26774       60.29980
C         66.05851       57.30914       59.27976
O         65.60433       56.25727       58.85955
C         68.50380       57.59260       59.51939
C         69.81084       57.65404       60.27280
C         70.47574       58.88302       60.43087
C         70.41749       56.48621       60.76207
C         71.70756       58.94350       61.08769
C         71.64688       56.54755       61.42481
C         72.29595       57.77500       61.59084
O         73.48551       57.81883       62.22375
H         66.75285       55.17127       60.61631
H         66.96519       58.06064       61.04656
H         68.34299       58.58276       59.04526
H         68.64036       56.85315       58.70196
H         70.04432       59.79720       60.04228
H         69.94275       55.52639       60.61780
H         72.20511       59.89857       61.19951
H         72.09933       55.63847       61.80068
H         73.97019       58.64717       62.34989
N         65.61473       58.51347       58.79547
C         64.55891       58.75265       57.80011
C         63.13481       58.45765       58.28256
O         62.31847       59.36961       58.25536
C         64.79299       58.04753       56.44006
C         66.00788       58.54951       55.64331
C         67.31989       58.13889       56.23084
O         67.61492       56.83164       56.36257
O         68.14500       58.98252       56.54144
H         66.08429       59.36077       59.15325
H         64.56390       59.84588       57.57935
H         63.91252       58.29081       55.80287
H         64.81793       56.94296       56.54583
H         65.95198       59.65602       55.53933
H         65.95995       58.11115       54.62330
N         62.73246       57.20616       58.63718
C         61.33909       56.81988       58.84706
C         60.65070       57.53390       60.00308
O         59.44699       57.35621       60.13708
C         61.21960       55.29475       59.11078
C         61.91541       54.35359       58.11240
C         61.42952       54.45665       56.70010
O         61.59959       55.47847       56.05506
O         60.88832       53.37687       56.11002
H         63.42760       56.47163       58.65770
H         60.78901       57.07083       57.91374
H         60.14404       55.01528       59.15789
H         61.67216       55.08274       60.10466
H         61.74521       53.32305       58.47954
H         63.01157       54.49893       58.10587
N         61.32426       58.31798       60.89310
C         60.67699       58.97177       62.01422
H         59.58561       58.76841       62.05711
H         61.13080       58.60999       62.96027
H         60.82275       60.06859       61.93678
H         62.34055       58.45096       60.80366
Ca        60.52891       53.35830       53.89372
O         58.82348       55.77098       53.54971
H         59.43928       55.81060       54.32393
H         58.02124       55.30683       53.89740
O         60.37484       53.96358       50.96104
H         60.80510       53.34119       50.32273
H         60.98261       54.74452       50.99573
O         61.14520       50.69530       51.73938
H         60.20386       50.39116       51.73452
H         61.40461       50.71354       50.78415

Ca 1.0



