%chk=apoCaM-CA-Ng.loop2.water3.frame180.chk
%nprocshared=20
%mem=10GB
%nosave
#b3lyp/svp scf=(tight,noincore,xqc) Test 
#IOP(5/87=12) Density=Current Pop=(MK,readradii) iop(6/33=2) iop(6/42=6)

apoCaM-CA-Ng.loop2.water3.frame180 

   -2  1 
C          5.51611       64.96836       17.81450
C          6.44800       65.69766       16.88885
O          6.75451       65.17470       15.82690
H          4.54701       64.78912       17.30308
H          5.96212       63.99364       18.10248
H          5.32111       65.55286       18.73878
N          6.93473       66.92543       17.22432
C          7.82154       67.69228       16.35397
C          9.14038       66.98636       16.08020
O          9.71129       67.22862       15.03089
C          8.11097       69.10133       16.92474
C          8.92308       69.08892       18.19886
O          8.44713       68.50622       19.31550
O         10.02122       69.62166       18.22544
H          6.63028       67.34009       18.11714
H          7.29046       67.84329       15.38686
H          7.15382       69.63432       17.10841
H          8.67246       69.67662       16.15464
N          9.72203       66.19932       17.03274
C         11.05094       65.59270       16.97584
C         11.22689       64.53439       15.89391
O         11.29943       63.36721       16.24695
C         12.15475       66.65690       16.91613
H          9.20661       66.05696       17.91464
H         11.18819       65.06570       17.94894
H         12.09972       67.25864       15.98651
H         12.05901       67.34700       17.78093
H         13.15342       66.17190       16.96249
N         11.41149       64.85819       14.58088
C         11.74452       63.88517       13.54532
C         10.72277       63.88650       12.41359
O         11.00013       63.28283       11.38588
C         13.15265       64.21110       13.00224
C         14.19152       64.17981       14.09172
O         14.84709       65.17784       14.34379
O         14.40956       63.05020       14.79043
H         11.40895       65.84358       14.29269
H         11.78437       62.84868       13.94748
H         13.14497       65.21522       12.52419
H         13.44288       63.46041       12.23505
N          9.49842       64.48328       12.54036
C          8.49307       64.48459       11.48398
C          8.19318       63.08080       11.01030
O          8.35266       62.80402        9.82943
H          9.23990       64.93218       13.43084
H          8.85727       65.09668       10.63007
H          7.56129       64.95161       11.87050
N          7.83079       62.12059       11.90186
C          7.72720       60.71233       11.53815
C          6.41337       60.41451       10.83429
O          5.35437       60.71566       11.36590
C          7.92240       59.80190       12.76978
C          9.32471       59.93062       13.40843
N         10.39463       59.72450       12.43515
O          9.49265       61.16458       14.03734
H          7.75331       62.39111       12.89353
H          8.56763       60.45270       10.85652
H          7.81661       58.74635       12.43652
H          7.14257       59.99927       13.53503
H         10.32093       58.75821       12.04501
H         11.31435       59.80057       12.92561
N          6.42907       59.78712        9.62506
C          5.25464       59.46113        8.83117
C          4.29641       58.50073        9.50603
O          4.73678       57.50638       10.06505
H          7.34178       59.52398        9.22191
H          5.61004       58.95162        7.90871
H          4.73284       60.38840        8.51458
N          2.94773       58.68150        9.36755
C          1.96115       57.70492        9.84257
C          1.81038       57.70459       11.35706
O          1.17775       56.79081       11.87608
C          0.58055       57.89163        9.15299
C         -0.12071       59.21877        9.48783
O          0.69832       57.72721        7.76050
H          2.63069       59.48444        8.80789
H          2.32356       56.69810        9.53463
H         -0.09161       57.08128        9.51267
H          1.11329       58.54499        7.38208
H          0.47732       60.09516        9.16528
H         -1.10557       59.25990        8.97729
H         -0.30091       59.29071       10.57491
N          2.34597       58.68683       12.13123
C          2.31046       58.69280       13.58893
C          3.73353       58.60980       14.10839
O          4.66077       58.51392       13.30742
C          1.54127       59.93978       14.14124
C          2.17062       61.27973       13.67961
C          0.04928       59.84523       13.78138
C          1.56625       62.50349       14.37239
H          2.84540       59.46389       11.67278
H          1.79092       57.78987       13.98316
H          1.58386       59.90599       15.24899
H          2.06060       61.40184       12.58122
H          3.25375       61.27428       13.92584
H         -0.53723       60.64929       14.26923
H         -0.09688       59.91494       12.68942
H         -0.37048       58.88123       14.14165
H          2.09130       63.41845       14.02641
H          0.49112       62.62265       14.13088
H          1.69018       62.42070       15.47333
N          3.99222       58.64652       15.44052
C          5.33135       58.58778       15.99772
C          5.44737       57.45602       17.03107
O          6.47327       57.34081       17.67992
C          5.64655       59.99256       16.55060
C          7.10084       60.24432       16.83448
O          7.48668       61.47543       17.21693
O          7.94217       59.37547       16.66923
H          3.20969       58.76831       16.10394
H          6.07674       58.39288       15.19438
H          5.02239       60.20558       17.44387
H          5.37886       60.73161       15.76195
N          4.43965       56.53969       17.18816
C          4.50297       55.41129       18.11197
C          4.42614       55.89016       19.56037
O          3.47285       56.58738       19.87690
C          3.29964       54.47065       17.85510
C          3.35685       53.23752       18.72404
C          4.35286       52.26742       18.51774
C          2.41921       53.05113       19.75319
C          4.41263       51.13381       19.33335
C          2.48649       51.91946       20.57064
C          3.48199       50.96152       20.36112
H          3.60779       56.60140       16.58793
H          5.42660       54.83825       17.89395
H          3.27072       54.15046       16.79052
H          2.36376       55.03983       18.05187
H          5.08215       52.38922       17.72624
H          1.64617       53.78777       19.93270
H          5.18201       50.39028       19.17001
H          1.76762       51.78699       21.36846
H          3.53195       50.08594       20.99498
N          5.33030       55.51580       20.52140
C          5.21445       55.87459       21.93267
C          5.11621       57.36475       22.18185
O          4.44400       57.77245       23.11842
C          6.51226       55.33532       22.54361
C          6.75919       54.10699       21.70206
C          6.45725       54.63144       20.30246
H          4.32892       55.34725       22.35453
H          7.35252       56.03595       22.32984
H          6.46098       55.16317       23.64030
H          7.75949       53.63946       21.81664
H          5.97992       53.35496       21.97034
H          7.29912       55.22378       19.88061
H          6.23273       53.75699       19.66406
N          5.77801       58.23422       21.37276
C          5.75642       59.68228       21.53917
C          4.33605       60.20717       21.44758
O          3.91058       60.91124       22.35351
C          6.66722       60.34989       20.48796
C          8.14084       59.94741       20.70304
C          9.04604       60.57058       19.68606
O          9.13263       61.91045       19.58455
O          9.72449       59.86344       18.95811
H          6.31329       57.83804       20.58638
H          6.16489       59.95171       22.53942
H          6.58768       61.45570       20.58166
H          6.33107       60.05819       19.47226
H          8.25838       58.84513       20.64496
H          8.46880       60.27448       21.71236
N          3.52551       59.86941       20.40766
C          2.15314       60.32470       20.33053
H          1.59668       60.01863       21.24376
H          2.12497       61.43070       20.23707
H          1.65106       59.87478       19.44816
H          3.87801       59.24347       19.66864
Ca        10.42357       60.63230       16.04275
O         11.69185       57.97774       16.89958
H         11.38345       57.16112       17.36652
H         11.67102       57.73870       15.93874
O         12.08725       61.63990       18.58836
H         11.97553       62.35019       19.26886
H         13.05014       61.41337       18.61787
O         13.38731       60.26434       15.39050
H         13.11049       60.59380       14.49892
H         13.14152       60.99569       16.01085

Ca 1.0



