%chk=apoCaM-CA-Ng.loop2.water4.frame1130.chk
%nprocshared=20
%mem=10GB
%nosave
#b3lyp/svp scf=(tight,noincore,xqc) Test 
#IOP(5/87=12) Density=Current Pop=(MK,readradii) iop(6/33=2) iop(6/42=6)

apoCaM-CA-Ng.loop2.water4.frame1130 

   -2  1 
C        108.24598       75.57702       56.84485
C        108.22502       75.83117       58.32788
O        107.87515       74.92264       59.06669
H        109.28051       75.70911       56.46148
H        107.92668       74.53654       56.62143
H        107.55892       76.27317       56.32171
N        108.61286       77.01807       58.87737
C        109.05155       78.18482       58.11798
C        108.19420       79.39186       58.49879
O        106.98420       79.22357       58.54843
C        110.58311       78.32892       58.27804
C        111.03029       78.32018       59.71749
O        110.65937       79.28992       60.56930
O        111.71703       77.39888       60.12977
H        108.62063       77.09088       59.90618
H        108.87082       78.03565       57.03449
H        110.97178       79.21870       57.74273
H        111.04084       77.44162       57.78626
N        108.71826       80.63873       58.72622
C        107.92524       81.82417       59.05947
C        107.32311       81.77313       60.46005
O        106.58044       82.68283       60.80322
C        106.87783       82.12821       57.97300
H        109.73014       80.79012       58.62913
H        108.60798       82.70342       59.06857
H        106.09099       81.35239       57.90639
H        106.37510       83.09546       58.18889
H        107.37879       82.22056       56.98551
N        107.67985       80.80857       61.35914
C        107.24152       80.79150       62.75251
C        108.42279       81.09615       63.66554
O        109.52045       81.30783       63.16806
C        106.57000       79.43913       63.06842
C        107.49232       78.26026       62.89776
O        108.58622       78.13189       63.67164
O        107.23475       77.39721       62.07486
H        108.35277       80.08478       61.08009
H        106.48819       81.58849       62.93546
H        105.69671       79.32186       62.38914
H        106.18554       79.43789       64.10963
N        108.26705       81.16997       65.01878
C        109.35286       81.55377       65.90854
C        110.11680       80.35216       66.41296
O        110.64970       79.60461       65.60828
H        107.33155       81.02808       65.42838
H        108.93301       82.14193       66.75273
H        110.05932       82.23509       65.38684
N        110.21678       80.11374       67.75052
C        110.96071       78.99878       68.32875
C        110.01988       77.86030       68.62903
O        109.02516       78.06754       69.31152
C        111.64126       79.42941       69.64766
C        112.79580       80.36787       69.42837
N        113.90803       79.94112       68.78437
O        112.74638       81.50665       69.86762
H        109.71491       80.74189       68.39722
H        111.74342       78.62896       67.62994
H        112.04907       78.53889       70.17577
H        110.88063       79.89344       70.31560
H        113.97731       78.97213       68.43903
H        114.71401       80.56949       68.65405
N        110.30616       76.60130       68.18557
C        109.47979       75.45029       68.50719
C        109.43484       75.18877       70.00293
O        110.11679       75.87467       70.75267
H        111.15279       76.44293       67.61655
H        109.90310       74.54975       68.00992
H        108.45866       75.62290       68.11563
N        108.66892       74.20263       70.54578
C        107.79759       73.31493       69.78655
C        106.43760       73.96307       69.57686
O        105.83467       74.42406       70.53561
C        107.65639       71.96310       70.52180
C        106.78575       70.98194       69.72113
O        108.93696       71.40903       70.68929
H        108.70854       74.07932       71.57062
H        108.26997       73.06411       68.81105
H        107.19235       72.14309       71.51947
H        108.85427       70.68551       71.36373
H        107.22890       70.80219       68.71766
H        106.71471       70.01342       70.25775
H        105.75638       71.37783       69.59328
N        105.87492       73.96028       68.33648
C        104.55580       74.50219       68.01371
C        103.61606       73.37048       67.57540
O        104.02561       72.56889       66.74884
C        104.65756       75.58912       66.89700
C        105.40532       75.09585       65.62431
C        105.31339       76.86408       67.46083
C        105.23139       76.01931       64.42333
H        106.40085       73.50373       67.57703
H        104.11300       75.00842       68.88972
H        103.61219       75.85274       66.61895
H        105.01067       74.11983       65.29077
H        106.48967       74.97383       65.83910
H        104.74513       77.22789       68.34335
H        106.35962       76.66832       67.77166
H        105.30989       77.68575       66.71766
H        105.63475       77.02816       64.62164
H        105.77575       75.58990       63.55556
H        104.15518       76.09499       64.15872
N        102.32058       73.23684       68.00699
C        101.64650       74.10745       68.97239
C        100.11605       74.01363       68.88558
O         99.58876       73.18459       68.15475
C        102.10291       73.75132       70.41296
C        101.74542       72.33528       70.79192
O        102.21908       71.39156       70.17868
O        100.90836       72.10308       71.82098
H        101.77405       72.47910       67.56905
H        101.88865       75.16181       68.72593
H        101.62642       74.44637       71.13589
H        103.19712       73.86421       70.52875
N         99.34232       74.84803       69.64200
C         97.88797       74.75575       69.74702
C         97.22471       76.09063       69.39087
O         97.62507       77.09698       69.96496
C         97.55093       74.40407       71.20799
C         96.08294       74.12742       71.40852
C         95.23054       75.12367       71.91169
C         95.55726       72.86008       71.10425
C         93.87186       74.85608       72.10347
C         94.20062       72.59247       71.31059
C         93.35816       73.59030       71.80802
H         99.81442       75.55260       70.23064
H         97.50820       73.93198       69.10929
H         97.88046       75.23693       71.86822
H         98.12234       73.50691       71.53413
H         95.61575       76.10825       72.14545
H         96.20070       72.07697       70.72203
H         93.21784       75.62932       72.48470
H         93.80290       71.61080       71.08735
H         92.30784       73.38236       71.96576
N         96.17215       76.20179       68.51819
C         95.54182       75.09630       67.81560
C         96.35058       74.66666       66.60733
O         96.03397       73.62815       66.04293
C         94.18520       75.67827       67.40198
C         94.54627       77.11901       67.09523
C         95.48881       77.45380       68.25090
H         95.36341       74.23060       68.48798
H         93.65734       75.12812       66.59305
H         93.52497       75.69919       68.29935
H         95.13198       77.11933       66.14775
H         93.69370       77.82062       66.97633
H         96.17875       78.27020       67.94391
H         94.93027       77.74733       69.16692
N         97.38636       75.42043       66.13579
C         98.19915       75.02598       64.99999
C         97.31257       74.92560       63.75840
O         96.82564       75.96494       63.33423
C         99.36951       76.01633       64.70952
C        100.37707       76.21671       65.86772
C        100.01819       77.26240       66.90151
O         99.07264       78.01969       66.74941
O        100.82521       77.43723       67.96412
H         97.59227       76.30140       66.60233
H         98.67472       74.06978       65.26970
H         99.01663       77.00649       64.34550
H         99.93778       75.54765       63.87565
H        101.33749       76.57175       65.43764
H        100.57029       75.23479       66.34553
N         97.00555       73.76208       63.10722
C         97.40386       72.41745       63.48041
H         98.01897       72.35075       64.38947
H         96.48982       71.81369       63.66527
H         97.96887       71.95531       62.64571
H         96.39878       73.82895       62.27487
Ca       111.24423       79.06050       62.73515
O        112.61115       81.66945       62.92316
H        113.51914       81.40051       62.63444
H        112.76157       82.28736       63.68159
O        113.99155       78.56134       61.84225
H        114.81857       78.98250       62.18544
H        114.17059       78.40198       60.88191
O        112.12244       76.20154       63.34109
H        112.99048       75.82619       63.04790
H        111.55368       75.41019       63.51541
O        113.30921       78.89218       65.03057
H        114.12162       78.36727       65.23797
H        113.46693       79.77665       65.44722

Ca 1.0



