%chk=apoCaM-CA-Ng.loop2.water4.frame99.chk
%nprocshared=20
%mem=10GB
%nosave
#b3lyp/svp scf=(tight,noincore,xqc) Test 
#IOP(5/87=12) Density=Current Pop=(MK,readradii) iop(6/33=2) iop(6/42=6)

apoCaM-CA-Ng.loop2.water4.frame99 

   -2  1 
C         38.40883       27.18822       98.31590
C         39.11033       25.86937       98.18522
O         39.78174       25.66165       97.18398
H         37.83042       27.24893       99.26117
H         39.15588       28.00946       98.29994
H         37.70996       27.31999       97.46394
N         39.00953       24.92108       99.16288
C         39.68569       23.63123       99.06302
C         39.15350       22.80784       97.89243
O         39.85519       21.91012       97.45131
C         39.56401       22.85265      100.38899
C         40.37801       21.58869      100.39549
O         39.77519       20.39820      100.57485
O         41.58966       21.63656      100.25243
H         38.45957       25.13681      100.00895
H         40.76380       23.85161       98.88807
H         38.49436       22.61387      100.57814
H         39.92842       23.49310      101.22185
N         37.93207       23.06895       97.33181
C         37.41159       22.42572       96.12920
C         38.28028       22.82871       94.95196
O         38.45026       24.02882       94.78727
C         37.21995       20.91455       96.32670
H         37.33558       23.79806       97.74917
H         36.40198       22.84920       95.93239
H         36.55133       20.73393       97.19444
H         36.74148       20.47351       95.42637
H         38.17992       20.39035       96.50731
N         38.88284       21.93224       94.11064
C         39.80674       22.36017       93.06472
C         41.17282       21.78292       93.39506
O         41.78328       21.11087       92.57346
C         39.31727       21.92243       91.66619
C         37.85560       22.19102       91.39663
O         37.30601       23.41935       91.47568
O         37.13470       21.25424       91.09097
H         38.73765       20.92023       94.23337
H         39.90389       23.46559       93.06102
H         39.46406       20.82407       91.56079
H         39.94362       22.42407       90.89654
N         41.67426       21.94994       94.64948
C         42.89631       21.32113       95.10422
C         44.09690       21.93763       94.45651
O         44.85962       21.23693       93.80698
H         41.13071       22.48864       95.33845
H         42.84659       20.22471       94.92159
H         42.99947       21.47605       96.20043
N         44.34272       23.26187       94.64299
C         45.53585       23.93477       94.15252
C         46.33638       24.45263       95.32863
O         45.88116       24.35137       96.46114
C         45.13055       25.10039       93.22943
C         44.39119       24.61008       92.01122
N         43.12875       25.02134       91.75641
O         44.94262       23.83897       91.24060
H         43.66939       23.81451       95.19844
H         46.18791       23.22995       93.59230
H         46.03095       25.64995       92.88311
H         44.49745       25.81349       93.80361
H         42.65364       25.67783       92.38853
H         42.62713       24.68612       90.92125
N         47.55080       25.03514       95.12463
C         48.32081       25.63963       96.19775
C         48.46170       27.11724       95.95268
O         48.08903       27.59976       94.89044
H         47.92928       25.08784       94.16696
H         49.31899       25.16144       96.28365
H         47.80177       25.51609       97.17277
N         48.93377       27.92209       96.94320
C         48.99824       29.37569       96.80261
C         47.61120       30.01603       96.61359
O         47.56624       31.22301       96.42079
C         49.74611       30.02762       98.00223
C         48.99738       29.93371       99.34370
O         51.05031       29.50745       98.11229
H         49.24055       27.47618       97.82004
H         49.60621       29.59530       95.89643
H         49.85522       31.11321       97.78811
H         51.00903       28.64496       98.60170
H         48.81706       28.88004       99.64099
H         49.59290       30.42958      100.13904
H         48.02819       30.46417       99.27554
N         46.44755       29.29204       96.66433
C         45.11003       29.86407       96.50369
C         44.39151       29.25033       95.30852
O         44.93116       28.34802       94.68080
C         44.26535       29.60894       97.79635
C         43.96838       28.09204       98.01602
C         44.96157       30.22893       99.01607
C         43.00430       27.81094       99.16608
H         46.48583       28.28375       96.84657
H         45.17753       30.96052       96.32802
H         43.29269       30.13073       97.67055
H         44.90443       27.52390       98.19662
H         43.48701       27.67287       97.10775
H         45.18261       31.30109       98.82944
H         44.31836       30.17299       99.91601
H         45.90630       29.69094       99.23029
H         42.80014       26.71962       99.21079
H         43.43865       28.11420      100.13894
H         42.04369       28.34254       98.99919
N         43.12286       29.65107       94.99204
C         42.27887       28.95539       94.02696
C         41.92943       29.88996       92.87676
O         40.76465       30.09100       92.56435
C         41.05642       28.41605       94.80935
C         40.18903       27.47181       94.03470
O         40.64923       26.42434       93.61580
O         38.88055       27.73237       93.87117
H         42.70367       30.44013       95.50806
H         42.82978       28.09138       93.59505
H         40.45241       29.27167       95.18640
H         41.42469       27.84970       95.69243
N         42.94269       30.52245       92.22188
C         42.78542       31.46927       91.11460
C         41.76702       32.56412       91.43024
O         41.78738       33.08301       92.53406
C         44.17252       32.05172       90.72369
C         44.92719       32.66479       91.89114
C         44.53639       33.88618       92.46933
C         46.03957       31.98782       92.42618
C         45.21909       34.39616       93.57815
C         46.72034       32.50229       93.53060
C         46.30601       33.70125       94.11288
H         43.89661       30.32465       92.55708
H         42.42050       30.90172       90.23477
H         44.09180       32.77792       89.88615
H         44.76091       31.18939       90.33872
H         43.70610       34.44954       92.06890
H         46.36980       31.04748       92.00238
H         44.90282       35.32999       94.02473
H         47.56530       31.96397       93.93664
H         46.82968       34.09354       94.97485
N         40.82695       32.96186       90.51277
C         39.78433       33.95482       90.75214
C         38.93007       33.67283       91.97360
O         38.65632       34.59293       92.73116
C         38.90853       33.85743       89.49353
C         39.93142       33.54461       88.43277
C         40.78547       32.49624       89.13834
H         40.25134       34.96380       90.81834
H         38.24299       32.96511       89.55366
H         38.27863       34.75289       89.30342
H         39.52551       33.22702       87.44905
H         40.54570       34.46361       88.28532
H         40.32295       31.48515       89.11525
H         41.78331       32.48946       88.64792
N         38.46590       32.41262       92.21548
C         37.55504       32.07285       93.31085
C         38.11516       32.37095       94.70233
O         37.35995       32.24943       95.65797
C         37.18602       30.57223       93.26015
C         36.45296       30.14625       91.97779
C         36.19629       28.66482       91.99157
O         35.45065       28.11331       92.96828
O         36.66561       27.95294       91.11782
H         38.75887       31.67103       91.56347
H         36.63066       32.67916       93.18482
H         36.52982       30.32131       94.12311
H         38.12680       29.99469       93.35572
H         37.05449       30.38917       91.07793
H         35.48449       30.68445       91.90395
N         39.40516       32.75037       94.91547
C         39.91290       33.04965       96.23601
H         40.98417       33.33764       96.17242
H         39.34452       33.89698       96.67580
H         39.82117       32.15750       96.89042
H         40.05915       32.82544       94.13341
Ca        38.22891       25.33542       92.20534
O         40.10649       25.86449       90.05241
H         40.43865       26.10503       90.95341
H         40.15360       24.87563       90.02798
O         36.15557       25.92041       95.45435
H         35.27699       25.48555       95.31587
H         35.93766       26.87017       95.62955
O         35.06151       25.31240       90.54689
H         35.19264       24.49619       90.00181
H         34.43726       25.03485       91.26353
O         34.89515       23.15050       93.54312
H         35.73318       22.62553       93.51010
H         34.21394       22.50289       93.85330

Ca 1.0



