%chk=apoCaM-CA-Ng.loop1.water3.frame1449.chk
%nprocshared=20
%mem=10GB
%nosave
#b3lyp/svp scf=(tight,noincore,xqc) Test 
#IOP(5/87=12) Density=Current Pop=(MK,readradii) iop(6/33=2) iop(6/42=6)

apoCaM-CA-Ng.loop1.water3.frame1449 

   0  1 
C         40.97608       75.47928      121.59142
C         41.78988       76.73448      121.66314
O         42.36129       77.12387      120.65343
H         39.91501       75.72261      121.80616
H         41.03871       75.02933      120.57643
H         41.34667       74.74197      122.33286
N         41.89880       77.41884      122.84051
C         42.62285       78.68290      122.95135
C         44.06366       78.49821      123.40875
O         44.53139       79.23317      124.27057
C         41.83214       79.70969      123.79627
C         41.66249       79.33481      125.25237
O         42.12648       78.29958      125.70607
O         40.99720       80.16904      126.07221
H         41.42539       77.03552      123.67093
H         42.70196       79.12119      121.93558
H         40.82578       79.84616      123.34661
H         42.35947       80.68822      123.75418
N         44.86069       77.58408      122.79519
C         46.30513       77.52784      122.97581
C         46.94773       78.84326      122.55322
O         47.71412       79.36169      123.35020
C         46.93108       76.32952      122.21893
C         46.89072       75.02511      123.04654
C         45.49221       74.57124      123.49559
C         45.54479       73.38284      124.47461
N         46.11632       72.17639      123.87673
H         44.43393       76.93848      122.11484
H         46.55573       77.38690      124.05242
H         48.01732       76.52421      122.07210
H         46.48461       76.20929      121.20807
H         47.50483       75.19369      123.95940
H         47.37900       74.22452      122.45181
H         44.86653       74.32522      122.61155
H         45.00407       75.39316      124.05770
H         44.50702       73.16285      124.80899
H         46.13531       73.66608      125.37583
H         45.57868       71.91022      123.02082
H         47.12379       72.32029      123.64161
H         46.05599       71.39715      124.57160
N         46.70287       79.50250      121.38107
C         45.75297       79.13645      120.33437
C         44.63032       80.17701      120.27317
O         44.66521       81.13485      121.03908
C         46.48549       78.99833      118.99568
C         47.21411       80.24941      118.64034
O         46.52958       81.40244      118.59347
O         48.40063       80.21706      118.36404
H         47.20201       80.39881      121.25377
H         45.28020       78.16263      120.51885
H         45.74894       78.78891      118.19056
H         47.19895       78.14624      119.03074
N         43.56960       80.03409      119.42710
C         42.41395       80.92081      119.48008
C         42.53609       82.16507      118.62384
O         43.48249       82.30681      117.86139
H         43.50555       79.18252      118.84674
H         42.20789       81.19637      120.53774
H         41.51715       80.37268      119.11899
N         41.56101       83.11496      118.71493
C         41.45721       84.32036      117.88674
C         40.05210       84.38509      117.27533
O         39.22471       83.56662      117.65913
C         41.69933       85.54896      118.79027
C         43.08800       85.54712      119.35599
O         43.27497       85.51175      120.68874
O         44.05242       85.59475      118.60945
H         40.83243       82.97406      119.43466
H         42.21018       84.29682      117.07050
H         40.95878       85.54769      119.62074
H         41.57963       86.49670      118.24276
N         39.63713       85.29796      116.34610
C         40.43595       86.28526      115.63756
C         41.38379       85.62593      114.67427
O         40.95294       84.76125      113.92443
H         38.64182       85.26466      116.07320
H         40.92898       87.01042      116.30778
H         39.74127       86.88260      115.00696
N         42.67571       86.04261      114.57361
C         43.59404       85.47625      113.59083
C         44.10165       84.13023      114.06999
O         44.17364       83.91576      115.27201
C         44.71911       86.48349      113.25460
C         45.69624       85.95651      112.19480
O         45.41397       86.83903      114.41807
H         42.98639       86.83057      115.16246
H         43.03942       85.32842      112.63660
H         44.21248       87.38775      112.84074
H         45.85324       87.71118      114.23518
H         45.14837       85.67692      111.26982
H         46.43473       86.74488      111.93813
H         46.25348       85.07286      112.56976
N         44.43087       83.15777      113.16585
C         44.88206       81.80810      113.50979
C         46.27571       81.81255      114.18875
O         46.63544       83.08201      114.63875
C         43.83671       81.04556      114.37927
C         42.39666       81.15590      113.81174
C         44.24148       79.57134      114.57512
C         42.22076       80.63426      112.38348
H         44.32748       83.37038      112.16232
H         44.97625       81.24004      112.55801
H         43.80662       81.49828      115.39102
H         42.08333       82.22074      113.82411
H         41.69992       80.60882      114.48318
H         44.31418       79.03989      113.60368
H         45.22547       79.49649      115.08373
H         43.49560       79.05073      115.21335
H         41.16330       80.77136      112.07524
H         42.85371       81.20283      111.67152
H         42.46578       79.55565      112.31730
N         47.33803       81.27044      113.33971
C         48.62999       81.17740      114.06188
C         49.68574       82.02878      113.38711
O         50.79549       82.07089      113.89949
C         49.09402       79.71287      114.29984
C         49.36357       78.90897      113.02484
O         48.13372       79.03337      115.06529
H         47.03889       80.35045      112.95118
H         48.54589       81.61557      115.08343
H         50.06067       79.73641      114.85991
H         48.29073       79.28733      116.01104
H         49.73609       77.90054      113.30691
H         48.44395       78.76553      112.42369
H         50.13443       79.40624      112.40161
N         49.41561       82.77464      112.27100
C         50.40245       83.67568      111.68761
C         50.75066       84.75152      112.70991
O         49.95028       85.65004      112.92091
C         49.90051       84.30481      110.35276
C         49.68303       83.24852      109.25385
O         48.73438       85.07460      110.54689
H         48.48525       82.71497      111.83864
H         51.31239       83.07842      111.45530
H         50.68809       84.99055      109.97168
H         47.94565       84.47164      110.55110
H         50.63174       82.71099      109.04641
H         48.91200       82.50601      109.54921
H         49.34594       83.74348      108.31796
N         51.91047       84.66429      113.43129
C         52.33757       85.58779      114.48525
C         51.36321       85.63763      115.65141
O         50.19727       85.92736      115.45160
C         52.62676       86.99306      113.94215
C         53.64557       86.92057      112.79806
C         54.14784       88.30686      112.40233
C         55.09427       88.20233      111.20079
N         55.65363       89.50814      110.86125
H         52.54245       83.87326      113.23570
H         53.31034       85.21482      114.87905
H         53.05376       87.58963      114.77983
H         51.70186       87.49838      113.59023
H         53.16822       86.42356      111.92497
H         54.52507       86.31603      113.11475
H         54.68895       88.74889      113.26866
H         53.29097       88.96403      112.13967
H         54.53014       87.80102      110.32887
H         55.92653       87.50018      111.43233
H         56.23901       89.85872      111.65419
H         56.25674       89.40944      110.01310
H         54.88644       90.18907      110.65851
N         51.79099       85.41954      116.92518
C         50.87985       85.40404      118.06585
C         49.99451       84.16969      118.02918
O         48.78778       84.35131      118.06181
C         51.61931       85.53056      119.41279
C         52.29585       86.90602      119.52646
C         52.98955       87.06400      120.84582
O         54.19023       87.27885      120.88461
O         52.28839       86.98874      121.99336
H         52.80018       85.28868      117.08840
H         50.21966       86.30248      118.01922
H         52.36584       84.72437      119.55125
H         50.87041       85.44852      120.23308
H         51.52823       87.70661      119.43739
H         53.03010       87.03557      118.70285
N         50.44871       82.88300      117.96067
C         51.82740       82.44266      117.90372
H         52.56045       83.25873      117.93646
H         52.02965       81.76828      118.76172
H         51.98997       81.87829      116.96151
H         49.74431       82.13673      117.92747
Ca        46.76352       82.71241      116.84212
O         45.98899       83.93819      120.33704
H         45.87637       84.73421      120.91448
H         46.23097       83.21338      120.96542
O         46.86353       86.59095      118.31194
H         47.23472       87.47992      118.08474
H         46.48495       86.70348      119.21953
O         47.49662       85.57137      115.56541
H         48.02594       84.75912      115.75059
H         47.69843       85.76856      114.61702

Ca 1.0



