%chk=apoCaM-CA-Ng.loop4.water3.frame320.chk
%nprocshared=20
%mem=10GB
%nosave
#b3lyp/svp scf=(tight,noincore,xqc) Test 
#IOP(5/87=12) Density=Current Pop=(MK,readradii) iop(6/33=2) iop(6/42=6)

apoCaM-CA-Ng.loop4.water3.frame320 

   -3  1 
C         60.96278       85.60642       40.06423
C         62.21514       84.78754       39.99757
O         63.17342       85.13615       40.66205
H         60.13312       84.98236       40.45675
H         61.10134       86.47593       40.74428
H         60.70308       85.98066       39.05333
N         62.26647       83.66175       39.23070
C         63.42048       82.77141       39.14929
C         63.75885       82.15601       40.49225
O         64.83627       82.37667       41.01058
C         64.60902       83.32653       38.31357
C         65.15136       84.73468       38.46863
O         65.75344       85.22303       39.57395
O         65.13197       85.45588       37.48304
H         61.41864       83.39066       38.70964
H         63.12180       81.88131       38.54754
H         64.25681       83.27479       37.25703
H         65.45369       82.60803       38.38493
N         62.85293       81.29787       41.05312
C         62.97740       80.48674       42.26935
C         64.02141       79.37362       42.12340
O         63.63116       78.21543       42.06752
C         63.15103       81.32438       43.56417
C         62.99483       80.44661       44.83988
C         62.17050       82.51116       43.61398
C         61.64396       79.73657       45.00719
H         61.96173       81.18116       40.54457
H         61.99393       79.97751       42.35302
H         64.17246       81.76390       43.57588
H         63.15022       81.10027       45.71765
H         63.76816       79.65703       44.86281
H         62.32223       83.09172       44.54946
H         62.35233       83.20270       42.76571
H         61.11571       82.17467       43.56343
H         60.80254       80.45390       44.99777
H         61.47858       78.97768       44.21743
H         61.63230       79.20002       45.97938
N         65.35445       79.64040       42.02619
C         66.36219       78.62764       41.73992
C         66.71724       77.76593       42.94568
O         66.72025       76.55419       42.78180
C         67.64570       79.26408       41.14635
C         67.41428       79.99564       39.84542
O         66.30352       80.06736       39.34209
O         68.45839       80.56997       39.21934
H         65.67642       80.60890       42.08114
H         65.99003       77.96444       40.92405
H         68.38059       78.45507       40.94059
H         68.11227       79.97031       41.85451
N         67.10055       78.25541       44.16442
C         66.97514       79.64508       44.58196
C         67.56457       79.87552       45.96481
O         67.30318       79.05698       46.83500
H         67.43346       77.56810       44.85918
H         65.90173       79.88118       44.63488
H         67.39455       80.32072       43.84435
N         68.30640       80.97414       46.31689
C         68.58549       82.15315       45.49793
C         67.26030       82.75209       45.01808
O         67.03726       82.81152       43.81705
C         69.63809       81.84447       44.39548
C         70.14979       83.07323       43.68628
O         69.70658       84.30374       44.00692
O         70.99957       82.95398       42.81837
H         68.62963       81.02122       47.29630
H         69.08826       82.90620       46.14486
H         69.26908       81.14572       43.62950
H         70.51491       81.36448       44.88087
N         66.28982       83.18289       45.88532
C         66.43735       83.28543       47.33059
C         65.51629       82.35682       48.08757
O         64.75851       81.60762       47.49190
H         65.38909       83.49289       45.49552
H         66.23355       84.33426       47.63463
H         67.46725       83.05364       47.65427
N         65.60156       82.32077       49.44609
C         64.89285       81.35038       50.28061
C         63.37994       81.53819       50.35954
O         62.73844       80.66672       50.93135
C         65.51007       81.32573       51.70055
C         65.32961       82.63805       52.49190
C         66.08491       82.57854       53.79569
N         65.44603       82.70656       54.98075
O         67.29747       82.42466       53.77965
H         66.30329       82.93743       49.88117
H         65.08385       80.34650       49.83836
H         66.59616       81.11303       51.58456
H         65.06678       80.49048       52.28683
H         64.24783       82.81510       52.67154
H         65.72499       83.50469       51.92491
H         64.42828       82.84492       55.02216
H         65.97488       82.67044       55.86473
N         62.73657       82.63048       49.85181
C         61.28475       82.81829       49.95139
C         60.90780       84.01418       50.81622
O         59.71732       84.25305       50.96351
C         60.62349       82.90561       48.54960
C         60.74063       81.57017       47.81344
C         61.19311       84.03829       47.68976
H         63.29289       83.37063       49.40129
H         60.81017       81.95205       50.46375
H         59.53497       83.09430       48.68657
H         60.26875       80.75959       48.40910
H         60.20395       81.63594       46.84544
H         61.80289       81.30817       47.63570
H         61.08666       85.01094       48.21306
H         62.26237       83.85649       47.46545
H         60.64628       84.09729       46.72412
N         61.83866       84.76170       51.47977
C         61.47390       85.81728       52.42186
C         62.10853       87.16135       52.08480
O         61.85629       88.10371       52.82488
C         61.91966       85.37259       53.83275
C         61.27484       84.06881       54.24386
N         59.93353       83.97133       54.39180
O         61.97389       83.08899       54.44998
H         62.83761       84.52910       51.39316
H         60.37445       85.97776       52.43640
H         61.65871       86.14472       54.58831
H         63.02640       85.24990       53.83404
H         59.32305       84.78527       54.23374
H         59.50417       83.07722       54.67356
N         62.96046       87.33710       51.03032
C         63.74915       88.55436       50.85535
C         64.10311       88.78802       49.39402
O         64.62998       87.88573       48.75809
C         65.07816       88.41521       51.63221
C         64.91402       88.35744       53.13240
C         64.39827       89.46129       53.83548
C         65.30618       87.21362       53.84724
C         64.28139       89.42081       55.22830
C         65.18551       87.17446       55.23967
C         64.67787       88.27673       55.93546
O         64.58202       88.22757       57.27963
H         63.20182       86.52905       50.43959
H         63.20629       89.44534       51.24220
H         65.72843       89.29023       51.41888
H         65.60523       87.50686       51.26453
H         64.09673       90.35760       53.30783
H         65.70873       86.35235       53.32910
H         63.88918       90.28102       55.75681
H         65.49448       86.28795       55.77885
H         64.25145       88.97371       57.80022
N         63.94522       90.02891       48.83980
C         64.45023       90.43733       47.52497
C         63.73107       89.80490       46.34157
O         64.11332       90.11158       45.22008
C         65.97846       90.19989       47.40493
C         66.78053       90.88443       48.52423
C         68.26634       90.66489       48.39536
O         69.09333       91.20035       49.31265
O         68.73564       90.00735       47.47856
H         63.53010       90.77252       49.42228
H         64.28366       91.53406       47.42706
H         66.32804       90.60825       46.43080
H         66.20197       89.11296       47.40692
H         66.46398       90.48366       49.50792
H         66.58099       91.97695       48.50493
N         62.67352       88.95724       46.48629
C         61.98511       88.34694       45.35181
C         60.54744       88.84117       45.23889
O         59.86904       88.41473       44.31394
C         62.00894       86.81274       45.51614
C         63.41970       86.19792       45.61049
C         64.16553       86.18891       44.30749
O         64.46262       87.22932       43.74379
O         64.52637       85.00608       43.76918
H         62.32438       88.73187       47.42848
H         62.47431       88.61595       44.39237
H         61.45628       86.31563       44.68816
H         61.47610       86.58621       46.46256
H         63.30430       85.13926       45.91386
H         64.01951       86.70595       46.39333
N         60.01376       89.74546       46.11485
C         58.65534       90.24276       46.01873
H         58.10430       89.98760       46.94792
H         58.67645       91.34719       45.90665
H         58.10316       89.81561       45.15565
H         60.57681       90.11695       46.89200
Ca        65.58000       84.87508       41.78934
O         68.31933       83.62143       40.64750
H         69.03229       84.20020       41.01777
H         68.40407       82.77082       41.14709
O         67.45893       86.20361       43.76155
H         67.96833       86.67783       44.46529
H         68.06975       86.17869       42.98241
O         65.92045       88.01803       40.52891
H         65.01068       87.78470       40.21493
H         65.81479       88.17312       41.50079

Ca 1.0



