%chk=apoCaM-CA-Ng.loop1.water6.frame584.chk
%nprocshared=20
%mem=10GB
%nosave
#b3lyp/svp scf=(tight,noincore,xqc) Test 
#IOP(5/87=12) Density=Current Pop=(MK,readradii) iop(6/33=2) iop(6/42=6)

apoCaM-CA-Ng.loop1.water6.frame584 

   0  1 
C         78.90706       31.37535       90.94262
C         77.56605       31.75192       91.49863
O         77.26154       31.39475       92.62807
H         79.48792       30.78001       91.67890
H         78.77606       30.77758       90.01699
H         79.47883       32.29721       90.70279
N         76.71339       32.50839       90.75454
C         75.41976       32.96653       91.25495
C         74.44979       31.81343       91.47467
O         74.74086       30.68112       91.11410
C         74.78888       33.97635       90.26437
C         75.61444       35.22264       90.06521
O         75.21951       36.08568       89.29816
O         76.77377       35.41026       90.72716
H         77.02567       32.80820       89.81725
H         75.58126       33.48157       92.22851
H         73.79447       34.30404       90.63421
H         74.64441       33.47761       89.28042
N         73.24895       32.06543       92.06740
C         72.19813       31.07896       92.27344
C         70.96957       31.54651       91.51475
O         70.49707       32.64609       91.77034
C         71.90818       30.93777       93.78262
C         73.07823       30.33511       94.58648
C         73.47818       28.89671       94.19088
C         72.33863       27.87543       94.35623
N         72.80231       26.52402       94.04312
H         73.05514       33.02786       92.38520
H         72.48941       30.08672       91.87278
H         71.02166       30.30696       93.95018
H         71.66565       31.93944       94.20041
H         72.78934       30.32944       95.66011
H         73.96883       30.99123       94.48154
H         74.31996       28.59150       94.84948
H         73.85210       28.86917       93.14692
H         71.49649       28.12475       93.67700
H         71.96573       27.90034       95.40426
H         73.11868       26.47182       93.04754
H         73.58485       26.25211       94.68088
H         72.01560       25.85275       94.18031
N         70.43880       30.77697       90.51845
C         69.36638       31.21659       89.63138
C         68.21002       30.20489       89.66010
O         67.96895       29.55906       88.64936
C         69.99712       31.36439       88.22626
C         69.11048       32.00833       87.19748
O         69.53106       32.15560       86.06164
O         67.88163       32.46276       87.50690
H         70.86736       29.85959       90.31945
H         68.98910       32.22234       89.91946
H         70.32705       30.36650       87.86229
H         70.89809       32.01180       88.31105
N         67.44374       29.96804       90.76832
C         67.54652       30.69334       92.01830
C         68.09709       29.82867       93.12029
O         69.15783       29.25517       92.93094
H         66.72129       29.23782       90.71084
H         66.55972       31.13002       92.28300
H         68.23670       31.54553       91.92529
N         67.49026       29.78668       94.34126
C         68.14650       29.24766       95.53333
C         67.38031       28.13599       96.22999
O         67.81381       27.73920       97.30415
C         68.44393       30.41457       96.50641
C         67.23933       31.10401       97.10191
O         66.10117       30.73943       96.85198
O         67.42856       32.13740       97.94345
H         66.59086       30.27583       94.45766
H         69.14041       28.82031       95.27328
H         69.04951       31.17210       95.96232
H         69.06445       30.03472       97.34696
N         66.29083       27.53211       95.67492
C         65.60675       26.41998       96.31898
C         66.01801       25.13954       95.64921
O         65.17940       24.44153       95.09765
H         65.98160       27.80252       94.72983
H         64.50890       26.58798       96.27991
H         65.88694       26.32628       97.39072
N         67.33457       24.78642       95.66340
C         67.88303       23.61287       95.00590
C         68.80538       24.08000       93.90102
O         69.73854       24.82516       94.15935
C         68.58703       22.66479       96.01111
C         69.73246       23.29901       96.81159
O         67.63994       22.16655       96.92007
H         68.00008       25.41444       96.13629
H         67.06716       23.01392       94.54399
H         69.03213       21.81587       95.43775
H         67.17998       21.40872       96.47158
H         69.36396       24.13234       97.44465
H         70.17798       22.53427       97.48226
H         70.54076       23.66780       96.15009
N         68.55756       23.70624       92.62066
C         69.32667       24.15593       91.47049
C         68.40380       24.99855       90.61508
O         68.72357       26.15201       90.36521
C         69.92151       22.92832       90.72641
C         70.85945       22.09401       91.64570
C         70.64542       23.33678       89.43124
C         72.11092       22.82859       92.14747
H         67.75872       23.07831       92.44591
H         70.16917       24.81437       91.77555
H         69.08262       22.25951       90.43048
H         71.19239       21.19015       91.09109
H         70.28752       21.74231       92.53139
H         71.47696       24.04187       89.63528
H         71.04992       22.43607       88.92150
H         69.93967       23.82886       88.72994
H         71.84718       23.71188       92.76131
H         72.70576       22.14439       92.78805
H         72.75606       23.14749       91.30394
N         67.20612       24.50406       90.18644
C         66.20516       25.33720       89.52820
C         65.33183       24.50769       88.59384
O         65.46331       23.29336       88.55205
C         65.36122       26.09426       90.59688
C         64.56994       25.14627       91.51126
O         66.21063       26.88341       91.38853
H         66.94490       23.54514       90.45382
H         66.72325       26.08349       88.88567
H         64.64388       26.76064       90.06602
H         65.63536       27.50595       91.90652
H         63.97965       25.73940       92.24300
H         63.86285       24.52757       90.92151
H         65.25641       24.48318       92.07904
N         64.41377       25.12646       87.79811
C         63.51294       24.41110       86.89983
C         63.80194       24.78253       85.45542
O         64.02942       23.88142       84.65796
C         62.04361       24.68336       87.30120
C         61.06542       23.86430       86.45274
O         61.72365       26.04583       87.17989
H         64.34875       26.15335       87.83751
H         63.65879       23.31166       86.99735
H         61.89938       24.34792       88.35685
H         61.91904       26.47184       88.05505
H         60.02528       24.04352       86.79713
H         61.13535       24.14887       85.38137
H         61.28510       22.77929       86.55167
N         63.84297       26.08239       85.04612
C         64.11899       26.45737       83.66390
C         64.51432       27.91881       83.58910
O         63.78816       28.76464       84.09695
C         62.88605       26.21086       82.76633
C         63.26022       26.36463       81.27995
C         62.03623       26.31331       80.36218
C         62.47312       26.34794       78.88935
N         61.31807       26.41934       77.99638
H         63.72678       26.82561       85.75127
H         64.96883       25.84086       83.29235
H         62.08209       26.92598       83.05072
H         62.49450       25.18107       82.91103
H         63.96928       25.54826       81.01676
H         63.76474       27.33857       81.10221
H         61.39384       27.19408       80.58429
H         61.45116       25.38636       80.54577
H         63.06021       25.42894       78.66413
H         63.12487       27.23117       78.70490
H         61.65098       26.38954       77.00543
H         60.67560       25.61191       78.16483
H         60.80660       27.31854       78.15185
N         65.64000       28.29222       82.92024
C         66.06195       29.68052       82.82888
C         66.52964       30.16995       84.19464
O         65.91800       31.10359       84.69012
C         67.09786       29.89138       81.70257
C         66.47331       29.61958       80.31956
C         67.43989       29.83603       79.18690
O         67.06402       29.66662       78.03818
O         68.71368       30.21255       79.41609
H         66.19050       27.56852       82.43226
H         65.18638       30.30201       82.52627
H         67.97407       29.23274       81.82764
H         67.43609       30.95041       81.72381
H         65.60777       30.30230       80.17126
H         66.10793       28.57199       80.26703
N         67.54714       29.61205       84.91689
C         68.35891       28.48704       84.50616
H         69.07038       28.22808       85.31905
H         67.72856       27.59662       84.31184
H         68.97272       28.74352       83.62515
H         67.74645       30.00636       85.84786
Ca        66.75368       33.60470       85.91931
O         64.82668       33.66973       83.52251
H         64.38487       34.37190       82.98275
H         64.09170       33.06393       83.79349
O         64.16103       33.13486       87.41794
H         64.22003       34.05545       87.05758
H         63.83358       32.59194       86.65730
O         66.76868       36.33885       87.29293
H         66.88186       36.01889       88.22309
H         65.78802       36.38041       87.16196
O         68.44430       33.16750       83.16717
H         68.24754       33.72673       82.37404
H         69.23254       32.62996       82.90264
O         69.92193       35.16949       86.20814
H         70.23246       36.09164       86.02700
H         70.52699       34.59723       85.67278
O         67.43594       36.02460       83.96880
H         68.05611       36.58280       84.50151
H         66.60856       36.56433       83.90415

Ca 1.0



