%chk=apoCaM-CA-Ng.loop2.water4.frame1496.chk
%nprocshared=20
%mem=10GB
%nosave
#b3lyp/svp scf=(tight,noincore,xqc) Test 
#IOP(5/87=12) Density=Current Pop=(MK,readradii) iop(6/33=2) iop(6/42=6)

apoCaM-CA-Ng.loop2.water4.frame1496 

   -2  1 
C         57.65941       84.06704       43.75139
C         58.00355       83.77625       45.18653
O         57.58810       84.53705       46.04820
H         57.03231       84.98108       43.67828
H         58.58110       84.22256       43.15551
H         57.07690       83.21910       43.33073
N         58.71101       82.67341       45.56396
C         59.20829       81.65482       44.64149
C         60.65535       81.23063       44.90325
O         61.17457       80.49462       44.07413
C         58.24562       80.45167       44.64824
C         57.86354       80.03817       46.04381
O         56.69536       80.09611       46.39214
O         58.80059       79.68184       46.93688
H         58.80475       82.50280       46.57638
H         59.21801       82.04450       43.60233
H         58.67834       79.60599       44.07290
H         57.31214       80.75684       44.12642
N         61.38798       81.64309       45.98297
C         62.80188       81.29618       46.13728
C         63.06769       79.79601       46.18326
O         64.18859       79.41051       45.87984
C         63.39920       81.95821       47.38533
H         60.95969       82.25485       46.69033
H         63.33522       81.70474       45.24934
H         64.48700       81.74230       47.46008
H         63.26715       83.06000       47.33499
H         62.89585       81.57925       48.30125
N         62.12035       78.89895       46.59031
C         62.35884       77.45407       46.64890
C         61.36367       76.62740       45.82664
O         61.63875       75.45562       45.60994
C         62.39536       76.99700       48.12177
C         61.14606       77.34840       48.88873
O         61.21982       78.18156       49.94414
O         60.06530       76.88655       48.56731
H         61.21932       79.26269       46.92175
H         63.35785       77.22569       46.21646
H         63.25202       77.50653       48.61471
H         62.57460       75.90169       48.17939
N         60.19840       77.14733       45.34261
C         59.23900       76.42679       44.51131
C         58.55279       75.21087       45.12667
O         57.72064       74.64172       44.43482
H         59.98176       78.12988       45.52451
H         59.74752       76.10675       43.57662
H         58.43162       77.13684       44.22791
N         58.85042       74.71801       46.36424
C         58.27641       73.48828       46.90539
C         57.68354       73.75348       48.28241
O         58.16927       73.23156       49.27725
C         59.37680       72.40589       46.91527
C         59.80158       72.07957       45.49952
N         61.06884       72.29900       45.07965
O         58.98171       71.61763       44.71888
H         59.56906       75.17285       46.93394
H         57.45122       73.09675       46.26963
H         58.99142       71.47151       47.37801
H         60.24333       72.76121       47.51520
H         61.77746       72.69327       45.71390
H         61.33967       72.08246       44.10828
N         56.59008       74.55728       48.39511
C         55.94333       74.88803       49.65755
C         56.86314       75.71941       50.52700
O         57.34771       76.72439       50.03270
H         56.18045       74.94368       47.53233
H         55.58564       73.96263       50.14994
H         55.04838       75.50932       49.43941
N         57.17808       75.41360       51.82044
C         56.62605       74.28954       52.57384
C         55.14491       74.49254       52.92156
O         54.54831       73.56509       53.45079
C         57.42219       74.06911       53.88928
C         58.90131       73.75311       53.62484
O         57.32255       75.20965       54.70515
H         57.85523       76.03384       52.29131
H         56.74450       73.36577       51.96672
H         56.97750       73.18847       54.41136
H         57.45062       74.90940       55.64289
H         59.41601       74.59623       53.11907
H         59.42207       73.56423       54.58747
H         58.99377       72.84610       52.99124
N         54.50374       75.68323       52.71036
C         53.11990       75.95721       53.09970
C         52.33296       76.38444       51.85819
O         52.79698       77.28741       51.17522
C         53.08916       77.09273       54.17199
C         53.88557       76.66957       55.43488
C         51.63503       77.44759       54.54960
C         53.98868       77.76637       56.49853
H         55.02398       76.46923       52.29634
H         52.66567       75.06834       53.57471
H         53.56443       77.99968       53.73571
H         54.92348       76.41156       55.14148
H         53.42033       75.76764       55.89086
H         51.05684       77.74491       53.65338
H         51.12860       76.58561       55.03249
H         51.59614       78.31307       55.23832
H         54.61007       77.40235       57.34332
H         54.46575       78.67284       56.06990
H         52.99595       78.03250       56.91386
N         51.11096       75.87248       51.51014
C         50.37189       74.87582       52.28591
C         48.85894       74.98552       52.09172
O         48.40445       75.68545       51.19721
C         50.90095       73.45540       51.97475
C         50.76633       73.04119       50.52707
O         51.22965       71.83696       50.14341
O         50.25877       73.77662       49.69429
H         50.65130       76.30154       50.69220
H         50.50266       75.10771       53.35979
H         50.37310       72.71455       52.60929
H         51.97873       73.40096       52.22605
N         48.01495       74.35405       52.96394
C         46.55743       74.43603       52.88038
C         45.97518       75.17540       54.07553
O         46.51546       75.04759       55.16551
C         45.91559       73.04090       52.79635
C         46.25611       72.36508       51.49677
C         47.51631       71.78237       51.29321
C         45.30529       72.32968       50.46308
C         47.81976       71.17585       50.07105
C         45.61670       71.73422       49.23989
C         46.87324       71.15713       49.04341
H         48.42336       73.81526       53.74328
H         46.26123       74.97651       51.96368
H         44.81412       73.18481       52.83588
H         46.17745       72.39654       53.66475
H         48.25671       71.78942       52.08093
H         44.32931       72.78037       50.59739
H         48.78919       70.72226       49.91852
H         44.88330       71.72418       48.44466
H         47.11265       70.69525       48.09522
N         44.83321       75.93296       53.97193
C         44.05465       76.14059       52.75684
C         44.78256       77.05363       51.78618
O         44.72832       76.79718       50.59245
C         42.73572       76.72085       53.28006
C         43.16710       77.52215       54.48429
C         44.22629       76.60778       55.10739
H         43.78583       75.19377       52.23840
H         42.11689       77.25230       52.52529
H         42.13254       75.87262       53.67994
H         43.64726       78.44658       54.10351
H         42.35390       77.82878       55.17540
H         44.94738       77.22883       55.68197
H         43.77160       75.83614       55.76575
N         45.56262       78.07651       52.23303
C         46.34733       78.92455       51.34743
C         45.41074       79.82410       50.55199
O         44.69315       80.59676       51.17183
C         47.32626       79.79107       52.17235
C         48.33484       78.93654       52.96518
C         49.20360       79.80311       53.82816
O         49.93569       80.64034       53.32593
O         49.18300       79.65248       55.16694
H         45.64371       78.22441       53.24680
H         46.96640       78.27983       50.68875
H         46.74577       80.42169       52.88237
H         47.89131       80.46074       51.48669
H         48.96843       78.34764       52.26717
H         47.80758       78.22079       53.62940
N         45.32983       79.81045       49.19096
C         46.10895       78.93991       48.33866
H         47.19261       79.13429       48.47787
H         45.88089       77.87798       48.56214
H         45.85052       79.12931       47.27486
H         44.66961       80.45815       48.73267
Ca        58.23186       79.26647       49.07317
O         56.36308       77.47142       47.32669
H         55.46370       77.47013       47.74063
H         56.20153       77.25493       46.37425
O         58.59167       78.81421       52.03098
H         57.71655       78.94149       52.47636
H         59.15869       79.54783       52.37791
O         55.54343       80.31723       50.04866
H         55.95845       81.07567       49.56554
H         55.71703       80.50752       51.00474
O         58.94572       82.14474       49.59865
H         59.77471       82.13990       49.05714
H         58.27076       82.57839       49.01834

Ca 1.0



