%chk=apoCaM-CA-Ng.loop2.water3.frame166.chk
%nprocshared=20
%mem=10GB
%nosave
#b3lyp/svp scf=(tight,noincore,xqc) Test 
#IOP(5/87=12) Density=Current Pop=(MK,readradii) iop(6/33=2) iop(6/42=6)

apoCaM-CA-Ng.loop2.water3.frame166 

   -2  1 
C         90.63241       65.72189       39.73120
C         91.87544       65.69522       40.57232
O         91.99674       64.81674       41.41378
H         89.74261       65.84952       40.38276
H         90.65584       66.55603       38.99821
H         90.54250       64.76626       39.17372
N         92.84127       66.64195       40.40559
C         94.07930       66.68126       41.17477
C         94.13173       67.91133       42.08266
O         95.13119       68.07634       42.76074
C         95.25964       66.63459       40.18002
C         96.59769       66.52196       40.85744
O         96.86733       65.46660       41.64979
O         97.44948       67.37868       40.68281
H         92.69412       67.38033       39.69897
H         94.15105       65.79099       41.83792
H         95.23356       67.54099       39.53462
H         95.14416       65.74270       39.52659
N         93.08926       68.79589       42.16271
C         93.01038       69.97759       43.01929
C         92.92286       69.63666       44.50124
O         91.84186       69.77628       45.05371
C         94.10953       71.00152       42.71047
H         92.25963       68.64009       41.57403
H         92.04512       70.47578       42.76598
H         95.12144       70.60512       42.92821
H         94.06868       71.28378       41.63741
H         93.95454       71.91663       43.32140
N         94.01189       69.25418       45.22815
C         93.97209       68.99509       46.66479
C         94.43534       67.58717       47.02383
O         94.50691       67.29190       48.20915
C         94.75339       70.10393       47.40936
C         96.22218       70.23485       47.09642
O         96.92407       71.22683       47.67692
O         96.78849       69.47070       46.33208
H         94.92617       69.20669       44.76778
H         92.93068       69.06841       47.04681
H         94.64668       69.95211       48.50532
H         94.27011       71.07361       47.15800
N         94.70135       66.64143       46.07223
C         95.05641       65.26719       46.39545
C         93.96572       64.61607       47.21664
O         94.23835       64.17152       48.32276
H         94.61509       66.87581       45.07427
H         96.02197       65.25011       46.94758
H         95.19017       64.69200       45.45282
N         92.69070       64.55706       46.74005
C         91.55765       64.09708       47.53900
C         91.28117       62.62100       47.31566
O         91.04214       62.19847       46.19330
C         90.31178       64.94357       47.22451
C         90.48856       66.36824       47.68889
N         90.60011       66.65107       49.00891
O         90.51784       67.27474       46.87240
H         92.50326       64.96152       45.80874
H         91.77852       64.24388       48.61857
H         89.41949       64.53006       47.74253
H         90.12347       64.90707       46.13047
H         90.55787       65.90169       49.71544
H         90.71147       67.62384       49.33015
N         91.29059       61.78214       48.38943
C         91.05944       60.34941       48.34491
C         89.64659       59.96668       47.96564
O         88.70837       60.54143       48.50052
H         91.49807       62.17824       49.31940
H         91.19870       59.96582       49.37955
H         91.81465       59.84704       47.70496
N         89.42857       58.88492       47.15931
C         88.09328       58.31859       46.95061
C         87.19570       59.19320       46.08789
O         86.00278       58.91920       46.04348
C         88.15069       56.86059       46.41447
C         88.76711       56.72049       45.01378
O         88.81029       56.02341       47.33396
H         90.25245       58.38336       46.80017
H         87.61296       58.24815       47.95321
H         87.10614       56.48522       46.34044
H         89.78218       56.21780       47.29561
H         88.74232       55.65358       44.70539
H         88.18652       57.30612       44.27542
H         89.82181       57.06233       44.99445
N         87.67917       60.25532       45.38320
C         86.82647       61.18654       44.64781
C         87.00337       62.57884       45.21199
O         87.84966       62.78355       46.07537
C         87.11903       61.16587       43.11698
C         88.59940       61.51259       42.80517
C         86.69576       59.81423       42.52051
C         88.88673       61.68284       41.31372
H         88.69210       60.44312       45.39530
H         85.75275       60.92992       44.79299
H         86.47561       61.93584       42.63719
H         89.27389       60.72812       43.20872
H         88.85617       62.47822       43.29150
H         86.79065       59.81444       41.41638
H         87.30701       58.98984       42.93527
H         85.62580       59.61840       42.74959
H         88.24502       62.48334       40.88810
H         89.95018       61.97251       41.17787
H         88.72106       60.73847       40.75809
N         86.21183       63.59514       44.77827
C         86.33820       64.94531       45.29920
C         84.98945       65.63694       45.19342
O         84.88593       66.71867       44.64107
C         87.49161       65.63762       44.54043
C         87.90531       66.96608       45.09557
O         88.82359       67.56807       44.56380
O         87.30959       67.48813       46.18492
H         85.46627       63.39001       44.09312
H         86.57014       64.88673       46.38680
H         87.20676       65.74882       43.47095
H         88.38781       64.98381       44.57724
N         83.89421       64.99326       45.69258
C         82.50183       65.43065       45.59134
C         82.18503       66.19401       44.29822
O         82.22782       65.59036       43.23503
C         81.60917       64.16432       45.66808
C         80.15756       64.40920       45.33902
C         79.36360       65.25356       46.12835
C         79.59286       63.78805       44.20878
C         78.02420       65.47384       45.78766
C         78.25812       64.01196       43.87205
C         77.47314       64.85476       44.66056
H         84.06257       64.07605       46.13634
H         82.27640       66.05893       46.47476
H         81.70095       63.69336       46.67102
H         82.01398       63.43471       44.92985
H         79.78107       65.74001       47.00045
H         80.18727       63.13440       43.58093
H         77.41268       66.12627       46.39578
H         77.83584       63.53258       42.99787
H         76.43849       65.02738       44.39609
N         81.82300       67.51802       44.31258
C         81.36984       68.26657       43.14452
C         82.44406       68.38652       42.08057
O         82.12747       68.22040       40.91095
C         80.91310       69.61016       43.73380
C         81.79228       69.77755       44.95017
C         81.83678       68.35455       45.50063
H         80.47265       67.80451       42.67384
H         80.88609       70.46304       43.02220
H         79.88338       69.46736       44.13526
H         82.80381       70.06413       44.59683
H         81.46430       70.54498       45.68309
H         82.76800       68.25300       46.10003
H         80.94139       68.11184       46.11433
N         83.74380       68.59972       42.41378
C         84.83531       68.65177       41.44478
C         84.84509       67.38697       40.60160
O         84.88446       67.49037       39.38319
C         86.18564       68.82804       42.16909
C         86.26270       70.15986       42.94243
C         87.52506       70.22857       43.74218
O         88.61505       70.19837       43.19288
O         87.44814       70.27614       45.08558
H         83.97156       68.66533       43.41150
H         84.70153       69.52609       40.76898
H         87.01254       68.80539       41.42505
H         86.32926       67.97967       42.86946
H         85.42041       70.24641       43.65784
H         86.20503       71.02041       42.24259
N         84.73380       66.15895       41.17961
C         84.65181       64.94370       40.39881
H         83.80115       65.00744       39.68493
H         85.59624       64.78685       39.83846
H         84.47772       64.07406       41.06827
H         84.65324       66.08324       42.20210
Ca        89.28417       70.04145       46.36292
O         89.68244       72.77630       45.26314
H         89.28064       72.88699       46.16164
H         90.65107       72.66591       45.43675
O         87.35847       69.44972       48.62112
H         88.11552       69.30125       49.24189
H         87.23213       70.43188       48.61331
O         91.16899       71.02089       48.23720
H         90.77994       71.91911       48.38548
H         92.09717       71.08921       48.57137

Ca 1.0



