%chk=apoCaM-CA-Ng.loop1.water3.frame58.chk
%nprocshared=20
%mem=10GB
%nosave
#b3lyp/svp scf=(tight,noincore,xqc) Test 
#IOP(5/87=12) Density=Current Pop=(MK,readradii) iop(6/33=2) iop(6/42=6)

apoCaM-CA-Ng.loop1.water3.frame58 

   0  1 
C         63.99163       74.92215       73.86313
C         63.37405       76.27219       73.65248
O         63.27838       76.71651       72.51668
H         64.90169       75.02608       74.48863
H         63.26780       74.25457       74.37775
H         64.27025       74.45883       72.89235
N         62.89074       76.97197       74.71659
C         62.21922       78.25764       74.55935
C         63.18014       79.40622       74.26593
O         62.71337       80.45902       73.86297
C         61.33434       78.58508       75.77934
C         62.09692       78.87664       77.04701
O         62.87308       77.93795       77.61984
O         61.99011       79.96958       77.58013
H         62.92686       76.52065       75.64146
H         61.51902       78.15092       73.69914
H         60.63170       77.74227       75.95850
H         60.72961       79.47495       75.52721
N         64.51725       79.31038       74.51488
C         65.46186       80.40137       74.26513
C         65.70015       80.55503       72.77161
O         65.86799       79.52809       72.12832
C         66.78620       80.14713       75.01550
C         66.55045       80.24527       76.53692
C         67.86007       80.20038       77.33066
C         67.64442       80.45126       78.83554
N         66.86338       79.39317       79.47875
H         64.87714       78.44210       74.93774
H         65.07837       81.33403       74.69663
H         67.50997       80.93974       74.73475
H         67.23005       79.16663       74.73651
H         65.86963       79.43110       76.85966
H         66.06362       81.22166       76.75798
H         68.52006       81.01326       76.95505
H         68.37485       79.22898       77.17185
H         67.14058       81.43303       78.98609
H         68.64162       80.50585       79.32453
H         66.80241       79.59483       80.50301
H         65.89126       79.35998       79.09864
H         67.33394       78.46913       79.34487
N         65.78288       81.75293       72.10485
C         65.76787       83.11321       72.65403
C         66.91163       83.32585       73.63517
O         66.66149       83.52674       74.81554
C         64.39914       83.56911       73.19766
C         63.32817       83.40690       72.16796
O         63.44932       83.90102       71.05957
O         62.22062       82.71637       72.47040
H         65.94653       81.69624       71.08657
H         65.94545       83.81959       71.81252
H         64.48132       84.64799       73.44432
H         64.08714       83.05787       74.12298
N         68.21522       83.32036       73.23083
C         68.59601       83.21815       71.82814
C         70.08951       83.27345       71.59128
O         70.85570       83.29581       72.54395
H         68.94032       83.45180       73.95248
H         68.13870       84.06891       71.29748
H         68.22561       82.26508       71.40135
N         70.61316       83.27130       70.33130
C         69.82613       83.28843       69.09865
C         69.10669       84.62528       68.94052
O         69.75560       85.66217       68.97221
C         70.76148       83.03849       67.89055
C         70.05617       82.91712       66.56056
O         70.71286       82.69956       65.55528
O         68.71734       83.02558       66.45747
H         71.64279       83.24710       70.25064
H         69.10321       82.44255       69.11562
H         71.29950       82.07980       68.06142
H         71.51473       83.85330       67.82528
N         67.76376       84.66186       68.70619
C         67.02522       85.88785       68.44247
C         66.71629       86.68986       69.68647
O         67.10688       86.31508       70.78202
H         67.25273       83.77124       68.61432
H         66.04093       85.61170       68.00712
H         67.56304       86.50328       67.68750
N         65.96036       87.81952       69.56890
C         65.53464       88.63827       70.70649
C         64.62695       87.85777       71.66544
O         64.32618       86.69985       71.41005
C         64.88266       89.96180       70.20935
C         63.56038       89.73917       69.44238
O         65.83319       90.64209       69.41909
H         65.69223       88.10807       68.61621
H         66.44473       88.93311       71.27548
H         64.65171       90.60238       71.08712
H         65.36808       91.24274       68.78129
H         63.12470       90.72245       69.15997
H         63.71900       89.15897       68.51149
H         62.81913       89.21312       70.07827
N         64.17461       88.44075       72.81333
C         63.39011       87.76024       73.84329
C         61.96670       88.30269       73.82882
O         61.78547       89.50073       74.00407
C         64.06529       87.97462       75.24874
C         65.33522       87.11317       75.48845
C         63.09793       87.67274       76.41134
C         66.48651       87.32773       74.51442
H         64.40474       89.43141       72.98259
H         63.32042       86.66897       73.65258
H         64.33163       89.05136       75.34978
H         65.06479       86.03474       75.48350
H         65.72840       87.35934       76.50067
H         62.22447       88.35101       76.37449
H         62.74911       86.61955       76.38066
H         63.59010       87.86506       77.38924
H         67.35546       86.71994       74.84610
H         66.21872       86.97589       73.50386
H         66.78498       88.39643       74.49066
N         60.90357       87.44711       73.69058
C         59.50362       87.86611       73.79995
C         58.80103       87.23937       75.01314
O         57.67080       87.61699       75.28316
C         58.73670       87.57889       72.48705
C         58.53962       86.07969       72.21252
O         59.42553       88.17808       71.41972
H         61.09850       86.44567       73.53923
H         59.46808       88.96578       73.96048
H         57.72765       88.04457       72.58013
H         58.78783       88.24550       70.66198
H         59.50505       85.54296       72.13598
H         57.93822       85.61630       73.02163
H         57.98480       85.94240       71.26027
N         59.41668       86.30376       75.80163
C         58.88722       85.73895       77.04579
C         57.63789       84.88199       76.84876
O         57.03244       84.90200       75.78562
C         58.69159       86.84379       78.12262
C         59.96078       87.68948       78.28026
O         58.38250       86.26178       79.36176
H         60.36173       85.98462       75.55347
H         59.67130       85.04052       77.41989
H         57.85496       87.50777       77.80837
H         58.04411       86.98738       79.94883
H         60.18365       88.22215       77.33519
H         59.81425       88.45815       79.06672
H         60.82455       87.04785       78.55814
N         57.24178       84.03965       77.85210
C         56.08836       83.13731       77.78619
C         56.18928       82.08288       76.68249
O         55.22360       81.35768       76.48651
C         55.87494       82.45141       79.16376
C         57.01479       81.48518       79.55750
C         56.85801       80.99078       81.00196
C         57.99703       80.03157       81.38095
N         57.90665       79.63476       82.78607
H         57.79323       84.04984       78.72019
H         55.19162       83.76388       77.58276
H         54.91628       81.88660       79.16415
H         55.78926       83.25463       79.92890
H         57.99660       81.99615       79.48716
H         57.02388       80.61972       78.85959
H         55.88190       80.47338       81.12697
H         56.88592       81.87027       81.68270
H         58.97843       80.52883       81.21217
H         57.94780       79.12673       80.73500
H         56.99034       79.16791       82.97474
H         58.68077       78.96603       83.00345
H         58.00842       80.47516       83.40097
N         57.31041       81.93936       75.91864
C         57.42685       80.97456       74.83283
C         57.39475       79.55856       75.36724
O         58.21255       79.21089       76.20770
C         58.73717       81.21426       74.04445
C         58.78202       82.55920       73.28860
C         57.81983       82.63227       72.12739
O         56.61590       82.59226       72.31589
O         58.27176       82.77917       70.86521
H         58.12198       82.54131       76.10171
H         56.57973       81.10029       74.13452
H         58.89966       80.39809       73.30689
H         59.58199       81.20109       74.76401
H         59.80369       82.67774       72.88785
H         58.60118       83.40659       73.98158
N         56.47458       78.67335       74.89439
C         56.42562       77.29771       75.33582
H         55.61323       76.76039       74.80097
H         57.38957       76.79358       75.10911
H         56.22735       77.25389       76.42689
H         55.79573       78.97617       74.17949
Ca        60.44937       82.96684       70.28851
O         61.41513       79.98952       70.99733
H         61.03977       80.50797       71.75243
H         62.32250       80.36325       70.86301
O         61.24887       85.97321       70.26192
H         61.55156       86.57509       70.98679
H         62.08498       85.63738       69.85536
O         59.25672       81.49252       67.95913
H         58.35752       81.65327       68.34115
H         59.14460       80.69199       67.38813

Ca 1.0



