%chk=apoCaM-CA-Ng.loop4.water5.frame566.chk
%nprocshared=20
%mem=10GB
%nosave
#b3lyp/svp scf=(tight,noincore,xqc) Test 
#IOP(5/87=12) Density=Current Pop=(MK,readradii) iop(6/33=2) iop(6/42=6)

apoCaM-CA-Ng.loop4.water5.frame566 

   -3  1 
C         42.99735       -6.63360       71.47725
C         42.01565       -7.76535       71.45522
O         42.38953       -8.86925       71.81960
H         43.85345       -6.87391       70.81301
H         42.53267       -5.68635       71.13241
H         43.36778       -6.48936       72.51403
N         40.72558       -7.55999       71.05884
C         39.70303       -8.60232       70.99658
C         39.28990       -9.14570       72.36689
O         38.38377       -9.96743       72.40479
C         40.09373       -9.68923       69.95833
C         40.16893       -9.05822       68.58773
O         39.17930       -8.49141       68.15025
O         41.28025       -9.06887       67.82006
H         40.44551       -6.61188       70.76460
H         38.76542       -8.13081       70.62213
H         39.30072      -10.46748       69.92286
H         41.04794      -10.18773       70.21897
N         39.82430       -8.67407       73.53552
C         39.31076       -9.03629       74.86058
C         37.85865       -8.58944       75.01372
O         37.42270       -7.73658       74.25209
C         40.17028       -8.39902       76.01111
C         40.31171       -6.85293       75.87425
C         41.53489       -9.09745       76.09545
C         40.93964       -6.18373       77.09601
H         40.59048       -8.00254       73.48463
H         39.33661      -10.14343       74.94193
H         39.66078       -8.58887       76.97639
H         39.30562       -6.40233       75.74371
H         40.92965       -6.57654       74.99639
H         42.11763       -8.96530       75.16094
H         42.12798       -8.72897       76.95490
H         41.37953      -10.17764       76.27157
H         41.97565       -6.53619       77.26918
H         40.98394       -5.08689       76.92608
H         40.32263       -6.37877       77.99783
N         37.01726       -9.10356       75.95960
C         37.30966      -10.25209       76.81361
C         36.92900      -11.51902       76.07861
O         37.77248      -12.38750       75.90739
C         36.52753      -10.15408       78.14011
C         36.89560       -8.92309       78.91938
O         38.04391       -8.75143       79.29631
O         35.95272       -8.00944       79.21973
H         36.04487       -8.75519       75.95714
H         38.38401      -10.31138       77.07452
H         36.74860      -11.04450       78.76814
H         35.43435      -10.13992       77.93782
N         35.66829      -11.66624       75.58444
C         35.20331      -12.82881       74.85400
C         34.69384      -13.88314       75.80283
O         33.48964      -14.09189       75.85248
H         35.00356      -10.88480       75.68460
H         35.97035      -13.21297       74.14598
H         34.34107      -12.49955       74.23307
N         35.55107      -14.60803       76.57140
C         35.11241      -15.62600       77.51936
C         35.62324      -15.36367       78.93520
O         35.29685      -16.15147       79.81282
C         35.47133      -17.02937       76.97233
C         36.89562      -17.20447       76.50674
O         37.92515      -17.12258       77.36223
O         37.12082      -17.45201       75.33263
H         36.56397      -14.46563       76.45171
H         34.00399      -15.62365       77.61539
H         34.81925      -17.20097       76.08703
H         35.21613      -17.80994       77.72123
N         36.38679      -14.27367       79.25907
C         36.84759      -13.99419       80.61645
C         37.87034      -14.98622       81.14783
O         38.32327      -14.80508       82.26797
H         36.62798      -13.58057       78.53758
H         35.97257      -13.94857       81.29974
H         37.33811      -12.99572       80.62427
N         38.30618      -16.03338       80.39383
C         39.33596      -16.99112       80.76917
C         40.68240      -16.30165       80.91394
O         41.49088      -16.70309       81.73949
C         38.92261      -17.84808       81.98608
C         37.57901      -18.56055       81.73730
C         37.15028      -19.45298       82.87627
N         35.98339      -20.13257       82.79017
O         37.84429      -19.57045       83.87608
H         37.92535      -16.15522       79.45759
H         39.45642      -17.68655       79.90728
H         38.83993      -17.21260       82.89341
H         39.70837      -18.61442       82.16596
H         37.65970      -19.18267       80.81972
H         36.78333      -17.80075       81.58174
H         35.38460      -20.04424       81.95569
H         35.67595      -20.74760       83.55806
N         40.98242      -15.24449       80.10471
C         42.25599      -14.53901       80.10276
C         42.82955      -14.51105       78.69458
O         43.98363      -14.87801       78.52194
C         42.12940      -13.10256       80.70836
C         41.15728      -12.15577       79.98069
C         41.73953      -13.18242       82.19155
H         40.25533      -14.90714       79.45998
H         42.99456      -15.06222       80.75235
H         43.13849      -12.63339       80.66895
H         40.12527      -12.56525       79.97329
H         41.13691      -11.17000       80.49259
H         41.49160      -11.94643       78.94686
H         40.73013      -13.62463       82.31413
H         42.47444      -13.79967       82.75098
H         41.73875      -12.16685       82.64302
N         42.08956      -14.04980       77.64226
C         42.64918      -13.81231       76.31792
C         43.12515      -15.10565       75.66951
O         42.68093      -16.17933       76.05404
C         41.57745      -13.11936       75.42944
C         42.07320      -12.37327       74.20909
N         41.17938      -11.80197       73.37253
O         43.26418      -12.23886       73.98403
H         41.10918      -13.78293       77.80493
H         43.50406      -13.11697       76.47386
H         41.05053      -12.35529       76.03415
H         40.81805      -13.87640       75.13545
H         40.16823      -11.89229       73.54393
H         41.49860      -11.27583       72.54682
N         44.05358      -15.05923       74.67794
C         44.54514      -16.22294       73.93831
C         45.75176      -15.84744       73.08234
O         46.08734      -14.67287       72.99623
C         43.39301      -16.84891       73.10339
C         42.71286      -15.84939       72.18667
C         43.35523      -15.36917       71.03508
C         41.41669      -15.38753       72.48292
C         42.72338      -14.43537       70.20748
C         40.79074      -14.44703       71.65881
C         41.44277      -13.96294       70.52245
O         40.83150      -13.04744       69.74391
H         44.44782      -14.13766       74.47016
H         44.91765      -16.97107       74.67224
H         42.64065      -17.23543       73.82100
H         43.73603      -17.73023       72.52030
H         44.33899      -15.72585       70.77302
H         40.89398      -15.74035       73.36251
H         43.22701      -14.07867       69.32236
H         39.80003      -14.08798       71.90847
H         41.25733      -12.67117       68.96082
N         46.49509      -16.80488       72.45698
C         47.69495      -16.47097       71.69693
C         47.55157      -16.95097       70.26800
O         47.64354      -18.15299       70.05692
C         48.94560      -17.09519       72.35339
C         49.16914      -16.58113       73.78375
C         50.39813      -17.19572       74.39063
O         50.47087      -18.40485       74.54468
O         51.42242      -16.41299       74.78008
H         46.22551      -17.79664       72.55066
H         47.85890      -15.38439       71.69836
H         49.83972      -16.84097       71.74118
H         48.83865      -18.20294       72.37804
H         48.29687      -16.83267       74.42457
H         49.28485      -15.47565       73.76134
N         47.28693      -16.12676       69.20991
C         46.96318      -14.69944       69.27998
C         48.14171      -13.84803       69.71238
O         49.18846      -13.91113       69.08233
C         46.47771      -14.22343       67.89529
C         45.83735      -12.81968       67.91670
C         45.43166      -12.37463       66.53613
O         44.70598      -11.25601       66.34699
O         45.76917      -13.01725       65.55314
H         47.21153      -16.58592       68.28746
H         46.11221      -14.57190       69.97942
H         45.69218      -14.92496       67.53353
H         47.33095      -14.26053       67.18140
H         46.53857      -12.06540       68.32989
H         44.94012      -12.85214       68.56246
N         48.01342      -12.98950       70.76401
C         49.06857      -12.10526       71.21318
H         49.99641      -12.21244       70.61360
H         48.72016      -11.05368       71.13236
H         49.30522      -12.32412       72.27505
H         47.11442      -12.93858       71.26556
Ca        43.30607      -10.10266       67.72304
O         42.51928       -9.87738       64.66667
H         42.97169      -10.64608       64.23654
H         42.65569       -9.12495       64.03825
O         41.35178      -12.48559       66.19999
H         41.11921      -11.59882       66.57382
H         42.31161      -12.60107       66.41300
O         46.15175       -9.27295       69.04521
H         46.99413       -9.09401       68.55703
H         46.39997       -9.94391       69.72985
O         43.64124      -11.28831       70.58566
H         43.96925      -10.37329       70.40045
H         44.45158      -11.79195       70.84795
O         45.76059       -8.52411       65.59967
H         46.51050       -9.15150       65.75710
H         45.77433       -8.36162       64.62306

Ca 1.0



