%chk=apoCaM-CA-Ng.loop4.water4.frame661.chk
%nprocshared=20
%mem=10GB
%nosave
#b3lyp/svp scf=(tight,noincore,xqc) Test 
#IOP(5/87=12) Density=Current Pop=(MK,readradii) iop(6/33=2) iop(6/42=6)

apoCaM-CA-Ng.loop4.water4.frame661 

   -3  1 
C        -22.52293       52.78303      111.36860
C        -23.42419       53.75321      112.07650
O        -24.61721       53.73676      111.81260
H        -21.46902       52.88769      111.69958
H        -22.85925       51.74518      111.57629
H        -22.56678       52.96210      110.27403
N        -22.92686       54.62167      113.00673
C        -23.74225       55.59232      113.73314
C        -24.84139       54.88050      114.49533
O        -26.01142       55.06000      114.18020
C        -24.31071       56.68452      112.79974
C        -23.22976       57.44755      112.09731
O        -22.28336       58.09436      112.80435
O        -23.22369       57.51076      110.88070
H        -21.91977       54.58787      113.22633
H        -23.10350       56.12151      114.47537
H        -24.88644       57.41100      113.41290
H        -25.00584       56.24564      112.05706
N        -24.52625       54.05926      115.53581
C        -25.53469       53.30959      116.27955
C        -25.73214       53.92679      117.66020
O        -24.76730       54.45421      118.19685
C        -25.17624       51.79188      116.35457
C        -23.97494       51.51897      117.30187
C        -24.93475       51.23309      114.93801
C        -23.64638       50.03634      117.47428
H        -23.53820       53.98661      115.82086
H        -26.48726       53.37035      115.73308
H        -26.05393       51.25981      116.78054
H        -24.23039       51.89628      118.31494
H        -23.06389       52.04686      116.95238
H        -24.03045       51.68953      114.48079
H        -24.79957       50.13294      114.95902
H        -25.80863       51.44197      114.28567
H        -24.54114       49.47903      117.82443
H        -23.27711       49.59500      116.52714
H        -22.84248       49.92719      118.23284
N        -26.91215       53.87995      118.35072
C        -28.16892       53.33483      117.84516
C        -28.70067       54.22182      116.73710
O        -28.87051       53.74444      115.62292
C        -29.19536       53.22261      118.99201
C        -30.49486       52.62244      118.53232
O        -31.64058       53.31799      118.66072
O        -30.51975       51.50134      118.04960
H        -26.90611       54.26531      119.30880
H        -27.99400       52.30393      117.46908
H        -29.38692       54.22321      119.43596
H        -28.77315       52.57157      119.78827
N        -28.95503       55.54188      116.96678
C        -29.32595       56.45171      115.90095
C        -30.63932       56.11316      115.24174
O        -31.37869       55.25810      115.71083
H        -28.80777       55.93360      117.90914
H        -28.52346       56.41948      115.13343
H        -29.38820       57.49253      116.28818
N        -30.97030       56.77429      114.10071
C        -32.21732       56.57699      113.37420
C        -32.47231       55.14377      112.93032
O        -33.62418       54.84765      112.64846
C        -32.30001       57.53543      112.15584
C        -31.23181       57.30582      111.10558
O        -29.92277       57.39045      111.41288
O        -31.55276       57.08416      109.94967
H        -30.30569       57.48534      113.76466
H        -33.03624       56.84483      114.07901
H        -32.20059       58.57968      112.51783
H        -33.30023       57.43592      111.67809
N        -31.49008       54.19883      112.82281
C        -31.78659       52.85279      112.34448
C        -32.27981       52.83970      110.90212
O        -32.84826       51.84040      110.48763
H        -30.51661       54.42949      113.06844
H        -32.56455       52.41646      113.00908
H        -30.88699       52.20343      112.41077
N        -32.06192       53.90435      110.07233
C        -32.52384       54.02107      108.68940
C        -31.91390       53.00168      107.74185
O        -32.30615       52.98961      106.58225
C        -34.06456       54.07906      108.59522
C        -34.60829       55.29906      109.36102
C        -36.07691       55.55879      109.15084
N        -36.65738       56.61867      109.75994
O        -36.74507       54.83645      108.42554
H        -31.52207       54.69632      110.43415
H        -32.17038       54.99860      108.29158
H        -34.53528       53.14094      108.95923
H        -34.33426       54.21362      107.52450
H        -34.06656       56.21026      109.02731
H        -34.42869       55.15976      110.43898
H        -36.10520       57.23954      110.37088
H        -37.65682       56.82490      109.61737
N        -30.87267       52.20523      108.11353
C        -30.16082       51.33966      107.18041
C        -28.75959       51.88280      106.90280
O        -28.04550       51.26813      106.12441
C        -30.13855       49.87201      107.69779
C        -29.39294       49.70860      109.03494
C        -31.56789       49.32399      107.82640
H        -30.50307       52.27254      109.07110
H        -30.66915       51.32756      106.19101
H        -29.61067       49.24978      106.94129
H        -29.36315       48.63537      109.32126
H        -28.34574       50.06573      108.94589
H        -29.89465       50.26158      109.85574
H        -32.09329       49.39053      106.84997
H        -31.54619       48.25708      108.13481
H        -32.14736       49.89636      108.58156
N        -28.30331       53.03183      107.49309
C        -26.96607       53.57365      107.29369
C        -27.01890       55.03707      106.85511
O        -27.99905       55.72026      107.11400
C        -26.24181       53.48233      108.64849
C        -24.86792       54.08714      108.61760
N        -24.61362       55.21106      109.32321
O        -23.98937       53.57794      107.93888
H        -28.90208       53.54334      108.15459
H        -26.40632       52.98480      106.53398
H        -26.16852       52.42348      108.97891
H        -26.85991       54.02242      109.40020
H        -25.35634       55.66606      109.87312
H        -23.68320       55.64292      109.30341
N        -25.93587       55.59259      106.23612
C        -25.80489       57.01999      105.95402
C        -24.62454       57.25411      105.03661
O        -23.52739       56.82360      105.36372
C        -25.55979       57.80670      107.26689
C        -25.37289       59.29037      107.01803
C        -24.14689       59.91823      107.30975
C        -26.42115       60.05724      106.48498
C        -23.97635       61.28585      107.06795
C        -26.24872       61.42404      106.24578
C        -25.02848       62.04333      106.53429
O        -24.88059       63.36248      106.29553
H        -25.15753       54.96719      105.97773
H        -26.72683       57.38690      105.45375
H        -24.64560       57.39825      107.75101
H        -26.40293       57.66447      107.97411
H        -23.31913       59.35164      107.71822
H        -27.37288       59.59657      106.25526
H        -23.02757       61.75589      107.29514
H        -27.06619       62.00268      105.83494
H        -24.05413       63.83133      106.47994
N        -24.77394       57.98405      103.89438
C        -23.66483       58.28235      103.00567
C        -23.39874       59.77809      103.04369
O        -24.19820       60.51117      102.47744
C        -24.01204       57.79359      101.58099
C        -22.88982       58.03659      100.56192
C        -23.30049       57.54670       99.20095
O        -23.36302       58.32296       98.26063
O        -23.60059       56.24735       99.01056
H        -25.69906       58.38071      103.66791
H        -22.77504       57.72915      103.32914
H        -24.93475       58.31015      101.23086
H        -24.22874       56.70353      101.62635
H        -21.97067       57.49953      100.87780
H        -22.66323       59.12363      100.50374
N        -22.34407       60.35702      103.69795
C        -21.36772       59.69378      104.56825
C        -20.53755       58.65036      103.84681
O        -19.90636       58.95921      102.84610
C        -20.43436       60.76177      105.19735
C        -19.28956       60.19804      106.05906
C        -19.75154       59.36344      107.21343
O        -20.49256       59.89941      108.19715
O        -19.40696       58.19578      107.29322
H        -22.27948       61.38557      103.62326
H        -21.91601       59.21028      105.40620
H        -21.04777       61.45771      105.81032
H        -19.96115       61.35338      104.38335
H        -18.68967       61.04231      106.45964
H        -18.61747       59.58861      105.41739
N        -20.46505       57.38758      104.36161
C        -19.66994       56.32118      103.79549
H        -18.92161       55.99108      104.54768
H        -20.33089       55.46291      103.55306
H        -19.13554       56.63545      102.87646
H        -20.98464       57.16461      105.22357
Ca       -20.84157       58.57327      109.98055
O        -17.86062       57.73176      109.94030
H        -17.79271       56.99149      109.28611
H        -17.20947       58.40607      109.62144
O        -19.53959       59.93944      112.28920
H        -19.34001       59.86685      113.25587
H        -20.47372       60.26626      112.25242
O        -21.10573       55.80121      108.51284
H        -20.42791       55.74313      107.79489
H        -21.71956       55.04991      108.32207
O        -22.92243       60.69365      110.30779
H        -22.30935       61.46869      110.24714
H        -23.11245       60.60015      111.27477

Ca 1.0



