%chk=apoCaM-CA-Ng.loop3.water2.frame641.chk
%nprocshared=20
%mem=10GB
%nosave
#b3lyp/svp scf=(tight,noincore,xqc) Test 
#IOP(5/87=12) Density=Current Pop=(MK,readradii) iop(6/33=2) iop(6/42=6)

apoCaM-CA-Ng.loop3.water2.frame641 

   0  1 
C         76.23790       50.94932      -10.52323
C         76.54523       51.49885      -11.88610
O         75.64905       51.63496      -12.70643
H         75.15878       50.71420      -10.41680
H         76.83665       50.03355      -10.34007
H         76.50754       51.71074       -9.75749
N         77.81307       51.89598      -12.16467
C         78.18722       52.60215      -13.38296
C         78.29856       51.66123      -14.57386
O         79.08171       50.72292      -14.51636
C         79.52689       53.31403      -13.12253
C         79.84262       54.43666      -14.05751
O         80.81969       55.12720      -13.81874
O         79.02711       54.79372      -15.06551
H         78.51147       51.80278      -11.40919
H         77.42748       53.39646      -13.55915
H         80.36070       52.58175      -13.07594
H         79.45875       53.80738      -12.13042
N         77.56368       51.87041      -15.70253
C         77.67377       51.03634      -16.90038
C         79.08238       51.08725      -17.48674
O         79.58764       50.04789      -17.88685
C         76.62612       51.47522      -17.95511
C         76.60094       50.55336      -19.19258
C         75.46070       50.92524      -20.15366
C         75.45159       50.00790      -21.38768
N         74.34215       50.33784      -22.28336
H         76.90505       52.66501      -15.71421
H         77.42384       49.98422      -16.63311
H         76.81381       52.52447      -18.27323
H         75.62366       51.42899      -17.47445
H         76.45128       49.50149      -18.86259
H         77.57120       50.62361      -19.73018
H         75.57935       51.97981      -20.48469
H         74.48937       50.82492      -19.62085
H         75.35348       48.94682      -21.06645
H         76.41233       50.11924      -21.93803
H         73.42940       50.19235      -21.79349
H         74.41688       51.33071      -22.60317
H         74.37775       49.71037      -23.11945
N         79.76939       52.26530      -17.56305
C         81.08135       52.40949      -18.20112
C         82.20819       52.73597      -17.22531
O         83.34345       52.83829      -17.67306
C         81.01676       53.47977      -19.31628
C         80.67220       54.86653      -18.82322
O         81.56812       55.86358      -18.94269
O         79.57293       55.10824      -18.35133
H         79.33306       53.09568      -17.14471
H         81.37279       51.44980      -18.68261
H         80.27541       53.17725      -20.08567
H         82.01179       53.52194      -19.81204
N         82.00120       52.87824      -15.88826
C         83.08218       53.12078      -14.94636
C         83.81684       54.43852      -15.13878
O         84.95317       54.50937      -14.69836
H         81.05725       52.74480      -15.51110
H         83.81098       52.28386      -15.02836
H         82.69686       53.09835      -13.90468
N         83.23615       55.53723      -15.71840
C         83.94697       56.82095      -15.84448
C         83.00125       58.02339      -15.82330
O         81.80494       57.86173      -15.94187
C         84.72739       56.86245      -17.17834
C         85.80863       55.82137      -17.28832
N         86.88187       55.85396      -16.46558
O         85.72870       54.95518      -18.14671
H         82.25813       55.46809      -16.03059
H         84.61760       56.95146      -14.96679
H         85.20954       57.85322      -17.31794
H         83.99648       56.72206      -18.00572
H         86.97331       56.58934      -15.74979
H         87.62935       55.14976      -16.55301
N         83.50449       59.28801      -15.69688
C         82.69756       60.50331      -15.77718
C         81.62411       60.59989      -14.71036
O         81.95396       60.55548      -13.53364
H         84.52114       59.40163      -15.57308
H         82.24333       60.56596      -16.78775
H         83.37030       61.38045      -15.65765
N         80.30681       60.74038      -15.06116
C         79.21157       60.81004      -14.09335
C         78.59823       59.39530      -13.91336
O         79.64805       58.48901      -13.77915
C         78.12757       61.81072      -14.57909
C         78.54847       63.25855      -14.62744
C         78.90609       63.93181      -13.44670
C         78.51338       63.97180      -15.83812
C         79.21500       65.29571      -13.47576
C         78.82468       65.33536      -15.86493
C         79.17042       66.00332      -14.68568
O         79.44612       67.32288      -14.72564
H         80.06170       60.73109      -16.06090
H         79.60272       61.11781      -13.09802
H         77.25034       61.80468      -13.90689
H         77.77022       61.47439      -15.57787
H         78.92258       63.40753      -12.49962
H         78.22665       63.48010      -16.75925
H         79.47482       65.80420      -12.55569
H         78.78217       65.87717      -16.80165
H         79.66871       67.82733      -13.93002
N         77.71589       59.35616      -12.71875
C         77.08774       58.07018      -12.32317
C         76.43601       57.34101      -13.48339
O         77.14023       56.88264      -14.35897
C         78.06522       57.13015      -11.54217
C         77.43131       55.75548      -11.17436
C         78.60827       57.82712      -10.28368
C         76.16678       55.80833      -10.31409
H         76.92446       60.01519      -12.87396
H         76.28427       58.32815      -11.59801
H         78.93539       56.88292      -12.18249
H         78.18690       55.14092      -10.63927
H         77.17731       55.21471      -12.10830
H         79.31383       57.15589       -9.74793
H         79.15865       58.75129      -10.55640
H         77.78514       58.10202       -9.59172
H         75.80975       54.77159      -10.13491
H         76.36778       56.28146       -9.33293
H         75.35311       56.35494      -10.82841
N         75.09597       57.10249      -13.50422
C         74.49078       56.19628      -14.47599
C         73.43800       56.84670      -15.35011
O         72.96531       56.17345      -16.25709
C         73.90235       55.00138      -13.71364
O         72.89398       55.44078      -12.84068
H         74.50343       57.49759      -12.75860
H         75.26184       55.79858      -15.17221
H         74.73185       54.52093      -13.14144
H         73.48053       54.25504      -14.41965
H         72.87669       54.80753      -12.07722
N         72.99048       58.11968      -15.14794
C         71.94351       58.69533      -15.98478
C         72.52281       59.19587      -17.29943
O         73.72669       59.40769      -17.35726
C         71.24269       59.82583      -15.23577
H         73.34909       58.66858      -14.35358
H         71.18938       57.90111      -16.17389
H         71.96146       60.62181      -14.95297
H         70.46006       60.27691      -15.86680
H         70.77449       59.41645      -14.31319
N         71.78252       59.36716      -18.43596
C         70.36110       59.07169      -18.59628
C         69.66419       60.22203      -19.31099
O         70.19971       60.68566      -20.30867
C         70.22213       57.80519      -19.43826
H         72.29603       59.65168      -19.28611
H         69.88191       58.85162      -17.62934
H         70.72180       56.96036      -18.91699
H         69.14779       57.54990      -19.56478
H         70.68702       57.93538      -20.43831
N         68.46190       60.74053      -18.92829
C         67.60175       60.20153      -17.88275
C         67.89749       60.87591      -16.56447
O         68.03480       60.17601      -15.57082
C         66.11597       60.30697      -18.28493
C         65.84564       59.51454      -19.58050
C         64.38167       59.45242      -19.90190
O         63.52954       58.85431      -19.04709
O         63.96118       59.90835      -20.95306
H         68.08229       61.51744      -19.49435
H         67.75915       59.10831      -17.76197
H         65.81041       61.36827      -18.41732
H         65.50777       59.86686      -17.46317
H         66.20822       58.46975      -19.46772
H         66.39632       59.98328      -20.42554
N         68.07646       62.22546      -16.49033
C         68.47818       62.90740      -15.27509
H         69.46426       63.39285      -15.44090
H         67.73241       63.68634      -15.01851
H         68.58259       62.21549      -14.41260
H         67.97570       62.79786      -17.34170
Ca        79.41808       56.95288      -15.46188
O         76.87327       57.15487      -17.71055
H         76.43516       56.78379      -18.51729
H         76.79557       58.13646      -17.81564
O         79.70247       58.86254      -17.93607
H         79.26740       58.62330      -18.79182
H         80.24451       59.66222      -18.15131

Ca 1.0



