%chk=apoCaM-CA-Ng.loop3.water4.frame184.chk
%nprocshared=20
%mem=10GB
%nosave
#b3lyp/svp scf=(tight,noincore,xqc) Test 
#IOP(5/87=12) Density=Current Pop=(MK,readradii) iop(6/33=2) iop(6/42=6)

apoCaM-CA-Ng.loop3.water4.frame184 

   0  1 
C         80.64264       28.76868        0.93423
C         79.79668       28.10344       -0.11149
O         78.58249       28.17636       -0.02010
H         81.72528       28.63680        0.72348
H         80.42007       29.85621        0.95297
H         80.42004       28.33201        1.92983
N         80.37816       27.41886       -1.13503
C         79.65345       26.76264       -2.21805
C         78.67341       25.72532       -1.69179
O         77.53256       25.70153       -2.13717
C         78.96066       27.80607       -3.13092
C         79.94184       28.79465       -3.69369
O         79.81440       30.10591       -3.41558
O         80.85400       28.41623       -4.41077
H         81.40691       27.34745       -1.15596
H         80.40121       26.21442       -2.83299
H         78.18379       28.35346       -2.55538
H         78.45582       27.29495       -3.97949
N         79.04305       24.84831       -0.71130
C         78.13955       23.82411       -0.19363
C         77.64344       24.22655        1.17874
O         77.69434       23.45111        2.12451
C         78.84055       22.45520       -0.18372
C         79.34981       22.05528       -1.57268
C         80.14085       20.74418       -1.49121
C         80.68346       20.27885       -2.85154
N         81.63716       21.22835       -3.43114
H         79.98018       24.93388       -0.28921
H         77.23028       23.75429       -0.83112
H         78.13956       21.67642        0.19101
H         79.70715       22.51632        0.51185
H         80.01833       22.85591       -1.94853
H         78.48992       21.94503       -2.26917
H         79.47462       19.94877       -1.09165
H         80.99316       20.86913       -0.78686
H         79.84130       20.11197       -3.55823
H         81.19994       19.30628       -2.69413
H         82.41429       21.42001       -2.75770
H         82.04070       20.81315       -4.30132
H         81.16266       22.12095       -3.69373
N         77.12025       25.46835        1.33465
C         76.49051       25.94049        2.55064
C         75.14976       25.22017        2.70664
O         74.39136       25.15468        1.75038
C         76.38870       27.48722        2.47847
C         75.62270       28.03749        3.62992
O         76.14896       28.78980        4.60612
O         74.44504       27.77816        3.70274
H         77.13747       26.10660        0.52671
H         77.13944       25.73839        3.43300
H         75.87874       27.81350        1.54582
H         77.42104       27.90151        2.48403
N         74.80107       24.66044        3.90026
C         73.56039       23.93482        4.15385
C         72.30843       24.74483        3.86361
O         71.42601       24.23276        3.18955
H         75.45352       24.75495        4.69219
H         73.54656       23.64406        5.22697
H         73.54191       22.99636        3.55632
N         72.17407       26.02399        4.31680
C         71.00551       26.86657        4.05020
C         71.23635       27.88441        2.92290
O         70.41240       28.77281        2.75286
C         70.50850       27.55389        5.34492
C         71.47269       28.59920        5.94791
N         70.74366       29.50521        6.82461
O         72.46325       27.96495        6.70364
H         72.96097       26.42604        4.83671
H         70.15647       26.23871        3.70007
H         70.24227       26.79845        6.11642
H         69.56504       28.07414        5.07030
H         70.03848       30.02896        6.25816
H         71.42403       30.20944        7.18258
N         72.27482       27.75981        2.04906
C         72.51351       28.64232        0.91465
C         73.00871       30.03563        1.26204
O         73.23457       30.79158        0.32745
H         72.88759       26.94625        2.12961
H         71.59023       28.70741        0.30007
H         73.30702       28.18543        0.28314
N         73.19876       30.46364        2.54289
C         73.68189       31.80676        2.88216
C         73.38760       32.15573        4.33353
O         72.98986       31.29881        5.11206
C         75.22307       31.92118        2.67792
C         75.68129       31.93738        1.24404
C         75.33687       33.01676        0.41395
C         76.47965       30.90364        0.72771
C         75.77223       33.05538       -0.91359
C         76.90420       30.94164       -0.60432
C         76.55094       32.01616       -1.42911
O         76.95467       32.06073       -2.71451
H         72.94596       29.82335        3.30565
H         73.11825       32.55705        2.28498
H         75.70010       31.08414        3.23227
H         75.61156       32.86238        3.12440
H         74.73872       33.83241        0.79934
H         76.76980       30.07033        1.35117
H         75.50400       33.89405       -1.54246
H         77.50928       30.14268       -1.00148
H         77.48154       31.35334       -3.11221
N         73.57837       33.43406        4.76504
C         73.41662       33.83565        6.15696
C         71.97640       33.59300        6.60804
O         71.77772       32.71967        7.43363
C         73.89692       35.30943        6.37995
C         75.37477       35.54707        5.94009
C         73.72817       35.75802        7.84148
C         76.42688       34.78536        6.75445
H         73.87703       34.13331        4.06906
H         74.07595       33.18689        6.76922
H         73.26361       35.97167        5.74880
H         75.60268       36.63162        6.02559
H         75.51313       35.28364        4.87311
H         74.04547       36.81694        7.95619
H         72.68233       35.69087        8.15542
H         74.30744       35.12021        8.53761
H         76.41860       35.09655        7.81831
H         76.26627       33.69471        6.69447
H         77.43661       35.00732        6.35143
N         70.92403       34.30403        6.10787
C         69.53817       34.09168        6.54536
C         69.35326       34.33253        8.04080
O         68.64360       33.56066        8.67100
C         68.55684       34.96183        5.74547
O         68.81387       36.32839        5.93381
H         71.11587       35.01837        5.39066
H         69.25041       33.03750        6.32805
H         67.51367       34.74845        6.06771
H         68.60882       34.68610        4.66534
H         69.29236       36.64825        5.12508
N         70.01258       35.34308        8.68342
C         69.94097       35.61175       10.12184
C         70.19128       34.37543       10.99370
O         69.74152       34.36472       12.13194
C         68.59438       36.26487       10.45741
H         70.61066       35.95938        8.12126
H         70.70690       36.37565       10.38370
H         68.57087       36.56392       11.52877
H         68.46734       37.18799        9.85222
H         67.74953       35.57594       10.25585
N         70.86041       33.28328       10.51942
C         70.95957       32.02384       11.24817
C         72.39301       31.60787       11.49501
O         73.30028       32.10336       10.84136
C         70.25621       30.92795       10.43985
H         71.27718       33.32800        9.58820
H         70.45297       32.11020       12.23296
H         70.28625       29.95477       10.97313
H         69.19468       31.20250       10.26486
H         70.75161       30.80478        9.45244
N         72.65144       30.67994       12.46474
C         73.96025       30.11397       12.78566
C         75.00303       31.13487       13.23666
O         76.12243       30.71886       13.50651
C         74.50159       29.27338       11.60951
C         73.50784       28.18520       11.17493
C         74.10490       27.30770       10.11670
O         73.57372       27.21804        9.02444
O         75.21737       26.59428       10.37542
H         71.85299       30.32024       13.01061
H         73.82170       29.40720       13.63521
H         75.44237       28.77803       11.93777
H         74.74778       29.92602       10.75027
H         72.57918       28.65920       10.78689
H         73.24048       27.54565       12.04258
N         74.74139       32.46820       13.35626
C         75.77015       33.41253       13.73288
H         76.59472       33.38613       12.98776
H         75.35081       34.44055       13.75675
H         76.16908       33.16161       14.73787
H         73.80269       32.84588       13.17989
Ca        74.52982       28.80910        6.17924
O         74.12889       30.74214        8.43538
H         73.40208       30.17246        8.79053
H         73.79019       31.04287        7.55936
O         75.96847       26.21171        7.11114
H         76.57342       25.51780        6.74795
H         75.27643       25.70165        7.60157
O         76.58923       31.14569        6.33907
H         76.39996       31.62900        5.49656
H         77.56316       31.25749        6.47585
O         76.82158       29.10577        8.60670
H         77.43777       28.53025        9.12521
H         76.81413       29.96612        9.09688

Ca 1.0



