%chk=apoCaM-CA-Ng.loop3.water6.frame59.chk
%nprocshared=20
%mem=10GB
%nosave
#b3lyp/svp scf=(tight,noincore,xqc) Test 
#IOP(5/87=12) Density=Current Pop=(MK,readradii) iop(6/33=2) iop(6/42=6)

apoCaM-CA-Ng.loop3.water6.frame59 

   0  1 
C         33.31284       43.67171       67.44725
C         31.87377       43.58274       67.03130
O         31.46679       42.53710       66.55354
H         33.96051       43.47944       66.56520
H         33.55896       44.67729       67.84836
H         33.52781       42.91399       68.22874
N         31.04479       44.65616       67.16072
C         29.65182       44.68256       66.72097
C         29.58080       44.42949       65.22397
O         28.87985       43.53682       64.76655
C         28.75122       43.73230       67.54507
C         28.73779       44.04073       69.02430
O         29.40911       44.94698       69.49352
O         27.96102       43.30738       69.84358
H         31.42842       45.52834       67.55608
H         29.26078       45.71186       66.88697
H         29.06067       42.68032       67.39032
H         27.70662       43.83068       67.17915
N         30.30462       45.23319       64.39978
C         30.27925       45.17079       62.93906
C         30.87979       43.88317       62.36004
O         30.81621       43.70524       61.15196
C         31.01116       46.43018       62.42287
C         30.90353       46.70058       60.91597
C         31.38637       48.12034       60.56572
C         32.87816       48.36207       60.85263
N         33.24282       49.74529       60.54735
H         30.85996       45.97837       64.85091
H         29.21486       45.23979       62.62258
H         32.07657       46.38142       62.73503
H         30.53490       47.29634       62.93541
H         29.83161       46.64148       60.62775
H         31.47181       45.94803       60.33102
H         30.77927       48.85292       61.14254
H         31.19936       48.29851       59.48514
H         33.48895       47.66814       60.23408
H         33.10902       48.17415       61.92224
H         34.26461       49.87889       60.72377
H         33.03671       49.96411       59.54602
H         32.70829       50.39750       61.16734
N         31.48075       42.94268       63.14548
C         32.08786       41.71364       62.62617
C         31.04755       40.82774       61.94024
O         29.85732       41.08081       62.07487
C         32.79325       41.00242       63.81533
C         33.57948       39.76126       63.51351
O         33.01250       38.73468       63.19089
O         34.91196       39.74568       63.70580
H         31.55069       43.12352       64.15246
H         32.85366       42.00748       61.87524
H         32.04121       40.75091       64.58865
H         33.50225       41.73509       64.25876
N         31.43259       39.78049       61.15272
C         30.48682       38.87835       60.51417
C         29.72458       38.10109       61.55837
O         28.51021       38.22380       61.63453
H         32.43597       39.62151       60.98303
H         31.03394       38.15337       59.87227
H         29.79908       39.46126       59.86336
N         30.39708       37.28249       62.41695
C         29.75363       36.53719       63.49731
C         29.15551       37.44971       64.57372
O         28.46551       36.93797       65.44415
C         30.76413       35.56797       64.14996
C         31.33474       34.59018       63.14823
N         30.53922       33.69617       62.51654
O         32.53178       34.60423       62.90692
H         31.41013       37.17065       62.27274
H         28.92584       35.94075       63.05355
H         30.27643       34.98835       64.96316
H         31.58950       36.16577       64.59865
H         29.52852       33.65695       62.70977
H         30.93887       33.03355       61.83509
N         29.34573       38.80211       64.57013
C         28.68403       39.71130       65.48959
C         29.14397       39.56741       66.91834
O         28.32164       39.28237       67.77781
H         29.93851       39.23253       63.85363
H         27.58422       39.56823       65.41105
H         28.90668       40.75699       65.18406
N         30.44498       39.80501       67.25019
C         30.93927       39.81818       68.63176
C         32.46417       39.89864       68.67210
O         33.09315       40.13819       67.64907
C         30.29869       41.01035       69.38643
C         30.55792       41.12635       70.86588
C         30.14161       40.11576       71.74649
C         31.15892       42.28668       71.38604
C         30.31917       40.26599       73.12580
C         31.33018       42.43667       72.76432
C         30.90608       41.42766       73.64003
O         31.04660       41.56810       74.97366
H         31.09130       39.98762       66.47226
H         30.64950       38.84736       69.09077
H         29.19750       40.96269       69.28483
H         30.63835       41.93682       68.88795
H         29.66562       39.22082       71.36681
H         31.47620       43.08719       70.72856
H         29.98558       39.48509       73.79707
H         31.78025       43.34293       73.15041
H         31.42363       42.36685       75.36994
N         33.12895       39.58047       69.81830
C         34.57385       39.36520       69.86283
C         34.86859       37.85774       69.73413
O         36.02793       37.47439       69.69678
C         35.19529       40.09110       71.10196
C         36.74434       40.15415       71.00002
C         34.73827       39.47462       72.43882
C         37.40226       41.02217       72.07689
H         32.56782       39.29597       70.63283
H         35.03772       39.83279       68.96597
H         34.83098       41.14298       71.06524
H         37.01351       40.60293       70.01855
H         37.18989       39.14049       71.05469
H         35.10832       40.06816       73.29784
H         33.63539       39.46727       72.53175
H         35.11895       38.43992       72.54090
H         38.49638       41.07144       71.89177
H         36.99332       42.05441       72.04769
H         37.25743       40.59455       73.08916
N         33.84889       36.95442       69.56293
C         34.02332       35.52880       69.28610
C         34.47740       34.71808       70.49358
O         34.54811       33.50259       70.36885
C         32.68109       34.94657       68.79329
O         32.25066       35.64172       67.65207
H         32.88045       37.29576       69.53595
H         34.75168       35.40335       68.45356
H         31.93133       35.03009       69.61628
H         32.79722       33.87401       68.52557
H         31.26216       35.71007       67.70511
N         34.80510       35.29733       71.68537
C         35.18414       34.56287       72.88496
C         36.22602       33.49418       72.59410
O         36.04912       32.35293       72.99733
C         33.92949       33.99208       73.55815
H         34.80323       36.31890       71.77072
H         35.62873       35.29226       73.59878
H         33.21848       34.81616       73.78181
H         33.42547       33.25818       72.89431
H         34.19648       33.49535       74.51519
N         37.34051       33.80573       71.87663
C         38.39225       32.83430       71.57588
C         39.55820       33.48111       70.85416
O         39.42368       34.56609       70.30495
C         37.88124       31.65843       70.72539
H         37.44147       34.78327       71.56583
H         38.77094       32.45400       72.55070
H         37.07391       31.09547       71.23222
H         37.49451       32.02751       69.75161
H         38.70399       30.93687       70.53242
N         40.77856       32.87541       70.89294
C         41.99805       33.46123       70.35057
C         42.19429       34.86525       70.91315
O         42.53404       35.77635       70.16970
C         41.99204       33.43643       68.80314
C         41.86547       32.00762       68.25279
C         41.86447       32.00285       66.75070
O         40.80567       31.51166       66.07861
O         42.82560       32.43126       66.13155
H         40.87072       31.98755       71.41055
H         42.85158       32.83769       70.69914
H         42.94395       33.87591       68.43109
H         41.14957       34.05235       68.41891
H         40.91876       31.55015       68.61331
H         42.71627       31.38987       68.61286
N         41.91616       35.11723       72.22514
C         41.99152       36.43543       72.82102
H         42.38195       37.19885       72.11625
H         40.97486       36.74858       73.14328
H         42.65373       36.39952       73.70949
H         41.58139       34.35050       72.82808
Ca        34.81761       36.45434       63.37422
O         36.04934       34.00651       62.15499
H         36.88698       34.49431       62.35794
H         35.71875       34.41967       61.31785
O         33.70325       37.06326       60.66012
H         33.25024       36.51112       59.97513
H         34.02810       37.85803       60.16736
O         37.32887       36.47960       65.03985
H         37.07301       37.06946       65.79264
H         37.98050       37.01185       64.51799
O         34.22630       34.25122       65.33397
H         33.50858       33.57074       65.29093
H         35.02303       33.75606       65.64917
O         34.41230       37.74014       66.02584
H         34.48355       38.00664       66.97432
H         33.83090       36.94023       66.03596
O         36.86560       37.66126       61.58401
H         37.10123       38.62209       61.61847
H         36.59534       37.50360       60.64474

Ca 1.0



