%chk=apoCaM-CA-Ng.loop1.water3.frame1117.chk
%nprocshared=20
%mem=10GB
%nosave
#b3lyp/svp scf=(tight,noincore,xqc) Test 
#IOP(5/87=12) Density=Current Pop=(MK,readradii) iop(6/33=2) iop(6/42=6)

apoCaM-CA-Ng.loop1.water3.frame1117 

   0  1 
C         56.52019       45.94672       74.21483
C         55.62602       45.49802       73.10093
O         55.92121       45.79206       71.95109
H         57.37669       46.53293       73.81695
H         55.94512       46.59438       74.91080
H         56.90646       45.06420       74.76298
N         54.47777       44.81523       73.37958
C         53.50837       44.44426       72.35359
C         52.27682       45.30917       72.51036
O         51.15419       44.82352       72.54562
C         53.23532       42.92374       72.32665
C         52.68667       42.36430       73.61449
O         51.58275       41.84427       73.63316
O         53.42584       42.38198       74.73999
H         54.24884       44.63497       74.36736
H         53.90276       44.70541       71.35272
H         54.17929       42.38860       72.08909
H         52.51698       42.71818       71.50150
N         52.45772       46.65343       72.60022
C         51.38410       47.62894       72.66534
C         50.66400       47.67178       71.32462
O         49.45835       47.47138       71.33023
C         51.90853       49.02035       73.10896
C         52.62156       48.91987       74.47381
C         53.20769       50.25580       74.93256
C         54.00751       50.05653       76.23003
N         54.61406       51.30811       76.67656
H         53.42682       46.99754       72.61945
H         50.66824       47.32499       73.46397
H         51.05035       49.72269       73.19583
H         52.61255       49.44920       72.37212
H         53.46792       48.20739       74.40145
H         51.91290       48.53741       75.24091
H         52.38976       50.99136       75.09195
H         53.89362       50.64273       74.14721
H         54.81499       49.30913       76.05421
H         53.33819       49.66348       77.02731
H         55.26689       51.67102       75.94425
H         53.87092       52.01613       76.87450
H         55.15677       51.12831       77.55227
N         51.28666       47.85833       70.11526
C         52.72115       48.05737       69.88594
C         53.34133       46.83514       69.21870
O         52.63794       45.87251       68.94439
C         52.96099       49.38858       69.15116
C         52.20634       49.49079       67.86391
O         52.44854       48.73341       66.94117
O         51.24332       50.42168       67.73427
H         50.68875       47.81094       69.27456
H         53.27198       48.14861       70.82592
H         54.04362       49.55124       68.96424
H         52.61221       50.20681       69.81892
N         54.69325       46.75986       69.05301
C         55.38079       45.52697       68.69438
C         55.13280       45.01881       67.29643
O         54.49069       45.67781       66.49313
H         55.27560       47.56671       69.32336
H         55.08058       44.73885       69.41374
H         56.47741       45.67442       68.79817
N         55.63146       43.79030       66.96708
C         55.51989       43.17446       65.64681
C         56.81853       42.43008       65.29577
O         57.57349       42.10228       66.19911
C         54.34921       42.16824       65.65569
C         53.02827       42.85636       65.84783
O         52.63543       43.67175       65.02776
O         52.26255       42.56141       66.91459
H         56.07514       43.24321       67.72064
H         55.32185       43.96173       64.89232
H         54.50963       41.42581       66.46804
H         54.28859       41.60747       64.70395
N         57.14922       42.06535       64.01868
C         56.42344       42.47935       62.83359
C         56.57626       43.96223       62.59085
O         57.33155       44.62704       63.28971
H         57.99085       41.48462       63.87616
H         55.35591       42.20429       62.92109
H         56.82592       41.95425       61.94006
N         55.85565       44.55277       61.60446
C         55.91084       45.98230       61.31355
C         55.58780       46.81208       62.55433
O         54.70694       46.44089       63.31541
C         54.96978       46.31240       60.12709
C         54.96821       47.80425       59.76967
O         53.66319       45.89317       60.41751
H         55.22338       43.95279       61.05000
H         56.94406       46.23612       60.98770
H         55.35258       45.73877       59.24942
H         53.19986       45.76282       59.54875
H         55.99813       48.14471       59.53384
H         54.32489       47.97690       58.88139
H         54.56564       48.41293       60.60725
N         56.27550       47.97416       62.77961
C         56.09009       48.90012       63.89720
C         54.66575       49.41085       63.98093
O         53.77429       48.65706       64.34144
C         56.56931       48.30376       65.25562
C         58.07543       47.92988       65.23721
C         56.26542       49.24837       66.44139
C         59.03966       49.11325       65.06123
H         56.97967       48.25269       62.07944
H         56.72898       49.78325       63.69334
H         56.00558       47.36864       65.44143
H         58.26291       47.19655       64.42484
H         58.32497       47.43190       66.19979
H         55.17346       49.41053       66.55175
H         56.62334       48.80312       67.39358
H         56.73846       50.24212       66.30180
H         60.08492       48.74224       65.08576
H         58.88985       49.62425       64.08951
H         58.92924       49.85040       65.88309
N         54.39829       50.71976       63.71218
C         53.08992       51.32240       63.92506
C         52.39180       51.68963       62.62802
O         51.24121       52.10122       62.69872
C         53.20310       52.52958       64.89196
C         54.11682       53.65246       64.38174
O         53.69589       52.08714       66.13190
H         55.16064       51.31530       63.35957
H         52.42435       50.58469       64.40694
H         52.18382       52.97123       65.01577
H         52.95142       52.13922       66.78529
H         55.16985       53.31181       64.29993
H         53.77608       54.02400       63.39329
H         54.10288       54.49819       65.10144
N         52.98861       51.56163       61.40816
C         52.27473       51.86460       60.17320
C         51.19409       50.80736       59.95049
O         51.52660       49.63843       59.81661
C         53.26741       51.95775       58.98984
C         52.56144       52.37802       57.69592
O         54.24360       52.91979       59.30484
H         53.97224       51.26009       61.35000
H         51.81948       52.87605       60.27592
H         53.75538       50.96489       58.84952
H         54.99155       52.79990       58.66321
H         51.80279       51.62683       57.40160
H         52.06827       53.36529       57.83001
H         53.30244       52.46361       56.87319
N         49.87411       51.15755       59.93520
C         48.75551       50.22358       59.79963
C         48.69905       49.24497       60.96072
O         48.78410       48.04147       60.75317
C         48.72125       49.49495       58.43691
C         48.57486       50.45797       57.25310
C         48.16915       49.68918       55.98802
C         47.99281       50.63073       54.79156
N         47.45124       49.91009       53.63926
H         49.63429       52.15295       60.05613
H         47.80911       50.80727       59.85409
H         47.81458       48.84838       58.45834
H         49.60429       48.83643       58.28708
H         49.52359       51.01365       57.10118
H         47.76525       51.18783       57.47269
H         47.19613       49.18655       56.18750
H         48.92547       48.91172       55.74291
H         48.97623       51.07971       54.52892
H         47.29054       51.45124       55.05974
H         47.36690       50.56811       52.83138
H         48.08048       49.11847       53.37360
H         46.49921       49.54028       53.86854
N         48.49045       49.71067       62.22239
C         48.37158       48.84736       63.39036
C         49.49274       49.17516       64.40403
O         50.70112       48.74468       63.85042
C         46.94665       48.91127       63.98434
C         45.90066       48.29747       63.04367
C         44.52579       48.40197       63.64250
O         44.25510       47.81972       64.82682
O         43.64720       49.01615       63.05858
H         48.38787       50.72756       62.36071
H         48.52400       47.77703       63.12511
H         46.63652       49.94856       64.18508
H         46.93138       48.33916       64.93859
H         46.13524       47.22481       62.87051
H         45.91712       48.82610       62.06588
N         49.65028       50.59474       64.76328
C         48.53094       51.18174       65.49268
H         48.07278       50.45550       66.19865
H         48.88865       52.05839       66.07439
H         47.79922       51.59707       64.77440
H         50.45836       50.62027       65.42132
Ca        51.38849       46.92428       65.03328
O         51.77999       47.01727       61.98608
H         52.57200       47.59802       62.10738
H         51.16599       47.56458       61.43992
O         50.58009       45.13559       67.09605
H         50.16998       45.53653       67.90255
H         50.11418       44.27098       66.97881
O         49.68750       45.02843       63.42018
H         50.01877       44.23889       63.91717
H         49.20684       45.56350       64.10070

Ca 1.0



