%chk=apoCaM-CA-Ng.loop2.water3.frame167.chk
%nprocshared=20
%mem=10GB
%nosave
#b3lyp/svp scf=(tight,noincore,xqc) Test 
#IOP(5/87=12) Density=Current Pop=(MK,readradii) iop(6/33=2) iop(6/42=6)

apoCaM-CA-Ng.loop2.water3.frame167 

   -2  1 
C         99.53105       61.60877       30.31676
C        100.48879       61.36867       31.44645
O        100.09832       60.75599       32.42860
H         98.66420       62.19806       30.68221
H        100.01432       62.16729       29.48730
H         99.17142       60.63512       29.92317
N        101.76646       61.83418       31.37871
C        102.75421       61.63489       32.43009
C        103.16731       62.97275       33.03908
O        104.20684       63.01727       33.66989
C        103.94817       60.85772       31.82997
C        104.94304       60.42610       32.87606
O        104.55546       59.62317       33.88637
O        106.10480       60.79483       32.81136
H        102.06101       62.36307       30.54254
H        102.34179       61.01294       33.25521
H        104.44570       61.47899       31.05258
H        103.56834       59.93271       31.34499
N        102.37867       64.08764       32.91873
C        102.63346       65.41223       33.49074
C        102.56913       65.43468       35.01704
O        101.61316       65.98781       35.54331
C        103.92313       66.03580       32.94709
H        101.50291       64.01019       32.38160
H        101.80074       66.06585       33.13907
H        104.03040       67.07361       33.32888
H        104.82015       65.45739       33.24558
H        103.88182       66.07280       31.83770
N        103.55288       64.89278       35.79230
C        103.54931       64.89525       37.25152
C        103.48214       63.48405       37.83405
O        103.50353       63.36004       39.05081
C        104.77739       65.68419       37.76568
C        106.13252       65.10876       37.42110
O        106.25039       64.05627       36.81355
O        107.23960       65.77266       37.80305
H        104.37238       64.48612       35.33940
H        102.64965       65.42458       37.63270
H        104.71694       65.77024       38.87174
H        104.72213       66.71138       37.34354
N        103.34759       62.37804       37.04206
C        103.19933       61.02529       37.55999
C        101.97244       60.91762       38.43657
O        102.07563       60.47821       39.57271
H        103.30581       62.48165       36.02009
H        104.11248       60.72247       38.11690
H        103.07409       60.33105       36.69988
N        100.77729       61.36893       37.97282
C         99.55702       61.40937       38.77349
C         98.95979       60.03133       38.95407
O         98.68520       59.34795       37.97770
C         98.54938       62.36528       38.11791
C         99.08237       63.76857       38.23406
N         99.11215       64.38896       39.43924
O         99.51023       64.33693       37.24395
H        100.76320       61.78716       37.02865
H         99.79024       61.83368       39.77567
H         97.55892       62.33530       38.62056
H         98.40807       62.07251       37.05374
H         98.74351       63.92141       40.28145
H         99.48547       65.34333       39.53511
N         98.71199       59.57941       40.21369
C         98.16263       58.27698       40.53288
C         96.75910       58.06665       40.00893
O         95.88610       58.87745       40.28533
H         98.94180       60.19041       41.01266
H         98.10402       58.19580       41.64039
H         98.85156       57.48228       40.17707
N         96.45617       56.92063       39.33336
C         95.08604       56.53947       38.98240
C         94.47513       57.38415       37.86758
O         93.27743       57.25701       37.64632
C         94.98610       55.02071       38.65893
C         95.79144       54.57912       37.42514
O         95.34496       54.25371       39.78369
H         97.21920       56.24643       39.18613
H         94.46132       56.69765       39.89067
H         93.92041       54.78618       38.44531
H         96.32991       54.29594       39.89423
H         95.44088       55.11529       36.52643
H         96.87783       54.76447       37.54926
H         95.64616       53.49163       37.25546
N         95.21410       58.25284       37.12204
C         94.65034       59.12581       36.09082
C         94.93732       60.57817       36.44218
O         95.55466       60.83676       37.46922
C         95.21746       58.76498       34.67637
C         96.76167       58.89414       34.60528
C         94.73555       57.37170       34.24507
C         97.30775       58.80454       33.17942
H         96.22770       58.31591       37.29418
H         93.54323       59.02543       36.03832
H         94.78209       59.47077       33.94071
H         97.24482       58.11475       35.23176
H         97.06711       59.88694       34.99500
H         95.02485       57.15000       33.19850
H         95.15934       56.59165       34.90104
H         93.62660       57.32042       34.29094
H         97.09579       57.82111       32.71654
H         96.87061       59.61121       32.55155
H         98.40851       58.93328       33.20324
N         94.57571       61.57987       35.59033
C         95.00820       62.95804       35.75925
C         93.85352       63.95015       35.54305
O         94.10261       65.14602       35.52360
C         96.19422       63.15068       34.78674
C         97.08676       64.32724       35.07324
O         98.08760       64.48608       34.39315
O         96.85638       65.15757       36.10876
H         94.10117       61.34191       34.70658
H         95.41606       63.10936       36.78334
H         95.83683       63.16028       33.73856
H         96.86483       62.27018       34.89713
N         92.55284       63.52815       35.43057
C         91.41714       64.43981       35.28796
C         91.38429       65.05946       33.89446
O         91.42012       64.30352       32.93343
C         90.08863       63.68739       35.52856
C         88.93402       64.65927       35.61379
C         88.60394       65.24487       36.84891
C         88.20636       65.02097       34.46690
C         87.56359       66.17395       36.93514
C         87.16677       65.95311       34.55780
C         86.84604       66.52884       35.79051
H         92.34192       62.52522       35.52438
H         91.48833       65.19954       36.09488
H         90.15344       63.14296       36.49648
H         89.90690       62.91758       34.74621
H         89.15843       64.98789       37.74304
H         88.44964       64.59055       33.50378
H         87.31792       66.62276       37.88910
H         86.61207       66.23361       33.67189
H         86.04380       67.25229       35.85908
N         91.25713       66.40871       33.68645
C         91.20205       67.04259       32.37280
C         92.33879       66.62018       31.46972
O         92.10252       66.28302       30.31845
C         91.30598       68.53808       32.69846
C         90.55549       68.61172       34.00525
C         91.10023       67.39060       34.74104
H         90.21911       66.81579       31.90024
H         92.36143       68.81105       32.92893
H         90.93521       69.20771       31.89307
H         90.64575       69.56717       34.56297
H         89.47794       68.43383       33.77642
H         92.09236       67.57480       35.20734
H         90.35131       67.10258       35.50687
N         93.60310       66.56572       31.96752
C         94.76759       66.12515       31.20812
C         94.52903       64.74194       30.63378
O         94.62066       64.58592       29.42346
C         96.01372       66.13937       32.11961
C         96.38669       67.57985       32.51483
C         97.49041       67.62903       33.52260
O         98.58313       67.14122       33.28136
O         97.27818       68.25427       34.69522
H         93.72647       66.81036       32.96186
H         94.95016       66.82307       30.36007
H         96.88240       65.68387       31.59477
H         95.79448       65.53573       33.02438
H         95.51575       68.10366       32.95921
H         96.69861       68.13785       31.60758
N         94.17999       63.69721       31.43115
C         93.90260       62.38429       30.88955
H         93.06057       62.44546       30.16586
H         94.80215       61.98635       30.37372
H         93.61722       61.68782       31.70578
H         94.08079       63.84221       32.44562
Ca        98.39624       66.73490       36.63149
O        100.01567       69.14099       35.82650
H        100.16048       69.61061       36.68597
H        100.81611       69.35548       35.28538
O         97.20030       66.95723       39.27159
H         96.45895       66.42814       38.88275
H         96.90236       67.89824       39.19652
O        100.68428       67.53588       38.51769
H        101.34815       67.04489       39.06344
H        100.14282       68.03869       39.17688

Ca 1.0



