%chk=apoCaM-CA-Ng.loop3.water2.frame735.chk
%nprocshared=20
%mem=10GB
%nosave
#b3lyp/svp scf=(tight,noincore,xqc) Test 
#IOP(5/87=12) Density=Current Pop=(MK,readradii) iop(6/33=2) iop(6/42=6)

apoCaM-CA-Ng.loop3.water2.frame735 

   0  1 
C        110.82266        5.89274      -21.34827
C        111.67811        5.06272      -22.25600
O        111.92929        5.46752      -23.38225
H        109.92060        5.31562      -21.05646
H        111.39905        6.15483      -20.43589
H        110.50495        6.82989      -21.85240
N        112.17575        3.87569      -21.81453
C        113.04104        3.02959      -22.62481
C        112.29355        2.55644      -23.86416
O        111.26898        1.90142      -23.72934
C        113.54640        1.84405      -21.77350
C        114.59523        1.00996      -22.44872
O        115.14548       -0.02416      -21.78648
O        114.96497        1.26208      -23.58241
H        111.94792        3.58303      -20.85091
H        113.93049        3.63140      -22.91313
H        112.69224        1.19760      -21.47933
H        114.00895        2.24851      -20.84944
N        112.73605        2.89502      -25.10966
C        112.01051        2.54730      -26.33258
C        111.97517        1.04452      -26.59013
O        111.12246        0.60948      -27.35159
C        112.61791        3.27536      -27.55404
C        112.46275        4.80425      -27.43852
C        113.14595        5.53397      -28.60391
C        112.89424        7.05446      -28.59354
N        113.41222        7.71265      -27.39206
H        113.59377        3.46282      -25.18019
H        110.95902        2.89387      -26.21348
H        112.09892        2.95063      -28.48319
H        113.69300        3.00022      -27.64049
H        112.91091        5.15848      -26.49083
H        111.37821        5.04928      -27.43069
H        112.74635        5.13711      -29.56239
H        114.24035        5.33610      -28.57453
H        111.80347        7.25309      -28.68301
H        113.39485        7.49244      -29.48553
H        112.89772        7.39421      -26.54072
H        114.43392        7.52406      -27.28793
H        113.27035        8.74446      -27.48412
N        112.89022        0.20051      -26.03432
C        112.90214       -1.24721      -26.23253
C        112.82995       -2.01684      -24.90849
O        112.81472       -3.23922      -24.94892
C        114.12577       -1.63220      -27.09440
C        115.44619       -1.12204      -26.57753
O        115.93121       -1.53199      -25.39598
O        116.09751       -0.33647      -27.24712
H        113.64723        0.60396      -25.47210
H        112.00841       -1.56965      -26.81139
H        113.96639       -1.18950      -28.10286
H        114.17217       -2.73528      -27.22103
N        112.72653       -1.37967      -23.70412
C        112.55704       -2.04960      -22.42133
C        113.74609       -2.85064      -21.91377
O        113.63345       -3.35836      -20.80746
H        112.68019       -0.35577      -23.68137
H        111.66089       -2.70642      -22.46624
H        112.35671       -1.27062      -21.65362
N        114.89074       -3.04126      -22.63635
C        116.00241       -3.86984      -22.16717
C        117.35257       -3.16859      -22.29951
O        117.44146       -2.09643      -22.87699
C        116.03367       -5.16469      -23.00391
C        114.75359       -5.94945      -22.85827
N        113.95924       -6.18425      -23.92872
O        114.43149       -6.37867      -21.76032
H        114.95383       -2.65700      -23.58021
H        115.86275       -4.13799      -21.09677
H        116.87207       -5.81912      -22.68469
H        116.19841       -4.89513      -24.07099
H        114.20948       -5.82872      -24.86285
H        113.08546       -6.72061      -23.82275
N        118.46467       -3.77381      -21.78793
C        119.83754       -3.31289      -21.95478
C        120.08387       -1.92030      -21.43208
O        119.69776       -1.63014      -20.30821
H        118.33850       -4.65301      -21.26395
H        120.12621       -3.37722      -23.02522
H        120.49805       -4.00497      -21.38882
N        120.79513       -1.02178      -22.18179
C        121.07653        0.34204      -21.74098
C        119.83112        1.22255      -21.96854
O        118.71003        0.61470      -21.42826
C        122.27223        0.94181      -22.51928
C        123.55217        0.15310      -22.34250
C        124.11750       -0.02683      -21.06676
C        124.20652       -0.39323      -23.46048
C        125.30851       -0.74472      -20.91422
C        125.39950       -1.10658      -23.30566
C        125.95419       -1.28629      -22.03477
O        127.10559       -1.97617      -21.90371
H        121.19943       -1.34143      -23.07438
H        121.34243        0.32869      -20.66088
H        122.46686        1.97617      -22.16157
H        122.00417        1.00406      -23.59750
H        123.64114        0.38909      -20.18855
H        123.79851       -0.26328      -24.45489
H        125.73037       -0.87619      -19.92550
H        125.89503       -1.51819      -24.17610
H        127.52434       -2.12197      -21.04329
N        120.01213        2.58329      -21.45206
C        119.14036        3.72927      -21.83858
C        118.47634        3.63402      -23.27151
O        117.22573        3.00320      -23.28976
C        118.23417        4.18057      -20.63106
C        117.00721        3.26250      -20.38960
C        117.82312        5.65755      -20.73946
C        116.31507        3.49560      -19.04695
H        120.33137        2.60418      -20.45586
H        119.89822        4.53705      -21.93905
H        118.88045        4.12873      -19.72715
H        117.33095        2.20933      -20.38013
H        116.25230        3.39875      -21.18899
H        117.32067        6.00264      -19.81425
H        118.72198        6.29696      -20.86978
H        117.13758        5.82405      -21.58280
H        117.03162        3.32511      -18.21602
H        115.89170        4.51611      -18.97262
H        115.47765        2.77431      -18.93768
N        118.44433        4.91915      -24.01147
C        117.27809        5.16287      -24.89574
C        117.64362        6.10720      -26.03429
O        116.75421        6.46643      -26.79362
C        116.09939        5.74618      -24.08071
O        114.96841        5.90657      -24.89215
H        118.64181        5.75424      -23.41368
H        116.94459        4.21441      -25.37128
H        116.40266        6.73168      -23.65852
H        115.83315        5.05385      -23.25751
H        114.30682        6.41051      -24.35079
N        118.92728        6.52085      -26.25293
C        119.28656        7.45956      -27.31049
C        120.05619        6.76587      -28.41727
O        120.47792        5.63480      -28.21681
C        120.13008        8.57402      -26.69455
H        119.69167        6.14780      -25.67105
H        118.36547        7.87875      -27.76711
H        121.02721        8.14586      -26.19798
H        120.49645        9.26322      -27.46808
H        119.53567        9.13141      -25.93984
N        120.23220        7.31392      -29.65913
C        119.69019        8.58931      -30.13517
C        120.76583        9.39444      -30.85442
O        121.49058        8.79881      -31.64004
C        118.57186        8.28861      -31.13742
H        120.71381        6.72664      -30.35920
H        119.21886        9.17872      -29.33049
H        118.95222        7.69713      -31.99791
H        117.76395        7.71168      -30.63842
H        118.13501        9.23683      -31.51986
N        120.89848       10.75279      -30.76318
C        120.04325       11.64332      -29.98485
C        120.45064       11.65938      -28.52896
O        119.58646       11.51881      -27.67507
C        119.99372       13.06961      -30.59014
C        121.30143       13.88445      -30.56533
C        121.14488       15.24208      -31.20340
O        122.20165       16.07459      -31.24807
O        120.07930       15.60310      -31.68056
H        121.60019       11.18342      -31.38369
H        118.98591       11.30823      -30.07889
H        119.22192       13.64861      -30.03440
H        119.65119       12.97279      -31.64470
H        122.10296       13.34574      -31.10921
H        121.61984       14.04672      -29.51559
N        121.75999       11.81190      -28.17579
C        122.22862       11.82103      -26.80502
H        122.75644       12.77667      -26.60395
H        121.40195       11.71263      -26.07255
H        122.94062       10.98167      -26.65653
H        122.47384       11.90593      -28.91360
Ca       117.61710        0.80658      -23.32954
O        119.45842       -1.23465      -25.19709
H        120.32031       -1.71365      -25.28585
H        119.14864       -1.11146      -26.12889
O        118.32470        1.69545      -26.40983
H        118.05490        2.54437      -26.84150
H        119.24922        1.53914      -26.72779

Ca 1.0



