%chk=apoCaM-CA-Ng.loop4.water4.frame276.chk
%nprocshared=20
%mem=10GB
%nosave
#b3lyp/svp scf=(tight,noincore,xqc) Test 
#IOP(5/87=12) Density=Current Pop=(MK,readradii) iop(6/33=2) iop(6/42=6)

apoCaM-CA-Ng.loop4.water4.frame276 

   -3  1 
C         23.69926       34.33793        5.02298
C         23.55813       33.80800        3.62868
O         24.53135       33.83081        2.89206
H         23.00776       35.19261        5.16967
H         23.45858       33.53579        5.75147
H         24.74069       34.68187        5.20863
N         22.37132       33.27657        3.21048
C         22.15246       32.69838        1.88808
C         23.17625       31.62015        1.58738
O         24.00895       31.80709        0.71955
C         21.92172       33.76656        0.78351
C         22.96374       34.83160        0.60332
O         24.08664       34.55103        0.23020
O         22.63375       36.12416        0.79090
H         21.59268       33.23184        3.88490
H         21.17422       32.16694        1.89432
H         20.97200       34.28786        1.03289
H         21.76415       33.24885       -0.18944
N         23.13012       30.45169        2.29815
C         23.96497       29.25694        2.13152
C         23.68576       28.53196        0.81800
O         23.15070       27.43270        0.87251
C         25.47118       29.52373        2.39389
C         26.34488       28.24271        2.26123
C         25.65344       30.15275        3.78474
C         25.94781       27.07976        3.17859
H         22.41145       30.38912        3.03629
H         23.63366       28.55564        2.93061
H         25.85907       30.24714        1.64457
H         27.40236       28.51313        2.47375
H         26.30663       27.87384        1.21581
H         25.14995       31.13986        3.84159
H         25.24218       29.50651        4.58665
H         26.72487       30.30194        3.98415
H         24.93374       26.70438        2.93647
H         26.65926       26.23911        3.03678
H         25.97299       27.37867        4.24267
N         24.00443       29.06275       -0.39392
C         23.69848       28.39872       -1.65084
C         24.49590       27.11042       -1.84260
O         23.84983       26.08552       -2.00763
C         23.87978       29.35407       -2.85166
C         22.89093       30.49027       -2.79731
O         23.27705       31.64628       -2.76718
O         21.56789       30.23489       -2.80634
H         24.45930       29.97595       -0.44468
H         22.61600       28.13022       -1.64810
H         23.68697       28.79941       -3.79504
H         24.91302       29.75464       -2.88679
N         25.86177       27.02322       -1.90251
C         26.82088       28.09016       -1.66308
C         27.42113       28.59561       -2.95902
O         26.93730       28.20179       -4.01162
H         26.26688       26.10420       -2.14005
H         27.61211       27.69381       -0.99318
H         26.34610       28.92649       -1.14141
N         28.45725       29.48932       -3.01638
C         29.25513       29.97573       -1.88117
C         28.41871       30.66106       -0.81214
O         27.30685       31.06263       -1.12574
C         30.37201       30.92526       -2.39690
C         29.85282       32.20323       -3.02200
O         29.11811       32.17347       -3.99644
O         30.23511       33.39517       -2.52780
H         28.74077       29.78084       -3.96410
H         29.72874       29.08121       -1.43630
H         30.97928       30.38590       -3.15451
H         31.05461       31.20001       -1.57330
N         28.83244       30.87196        0.47641
C         30.10900       30.54891        1.11199
C         30.39459       29.07485        1.31237
O         29.63940       28.22949        0.85637
H         28.16055       31.35221        1.08096
H         30.08774       30.98527        2.13454
H         30.94711       31.03646        0.58145
N         31.50016       28.71130        2.03533
C         31.92253       27.32703        2.25352
C         31.80357       26.87354        3.71067
O         31.98010       25.68302        3.93511
C         33.30927       27.07011        1.58314
C         34.45360       28.06846        1.87181
C         35.08442       27.96902        3.22873
N         35.96827       26.98186        3.51003
O         34.87170       28.84333        4.05012
H         32.07550       29.46246        2.44399
H         31.21734       26.64666        1.72717
H         33.12241       27.17536        0.49195
H         33.64610       26.02397        1.75191
H         34.10172       29.10341        1.69075
H         35.27122       27.91034        1.13490
H         36.21538       26.27694        2.80009
H         36.45067       26.95251        4.42083
N         31.42756       27.70523        4.73347
C         31.07410       27.21496        6.07569
C         32.07402       27.59762        7.15666
O         31.84268       27.23364        8.30005
C         29.63806       27.66270        6.48413
C         28.58366       27.10272        5.52670
C         29.49168       29.18766        6.59723
H         31.34003       28.71368        4.54854
H         31.07023       26.10212        6.08835
H         29.41434       27.23411        7.48729
H         28.72183       27.50424        4.50095
H         28.64286       25.99409        5.49457
H         27.57260       27.37979        5.89297
H         28.46996       29.44568        6.95034
H         30.21807       29.60188        7.32730
H         29.64920       29.67766        5.61802
N         33.23408       28.25330        6.87040
C         34.26048       28.51714        7.87603
C         34.63843       29.99626        7.95337
O         35.42443       30.33882        8.83017
C         35.52639       27.68390        7.55787
C         35.27392       26.19190        7.46164
N         34.55634       25.65906        6.44132
O         35.75755       25.44927        8.30235
H         33.43305       28.49650        5.89807
H         33.89832       28.21345        8.88244
H         36.26195       27.86297        8.37342
H         35.98811       28.02349        6.60648
H         34.17217       26.24655        5.68977
H         34.40446       24.64123        6.38269
N         34.18734       30.91710        7.05265
C         34.67884       32.29093        6.98357
C         33.59039       33.21825        6.47524
O         33.01174       32.88430        5.45065
C         35.80188       32.38220        5.92474
C         37.01906       31.53479        6.18766
C         37.82740       31.74927        7.31590
C         37.38350       30.54419        5.26223
C         38.98469       30.98463        7.50602
C         38.53160       29.77799        5.45611
C         39.34077       29.99778        6.57301
O         40.46015       29.26396        6.73136
H         33.58852       30.60286        6.27685
H         35.08531       32.63758        7.96046
H         36.14652       33.43610        5.85299
H         35.37462       32.10311        4.93519
H         37.57321       32.51643        8.03657
H         36.78641       30.37277        4.37909
H         39.60865       31.16591        8.37178
H         38.79739       29.02253        4.72749
H         41.06361       29.39887        7.47521
N         33.38438       34.45616        7.02538
C         32.55516       35.51576        6.42918
C         31.06177       35.35750        6.67638
O         30.45480       36.31801        7.13256
C         32.87360       35.75004        4.92735
C         34.34147       36.16413        4.72832
C         34.69180       36.29587        3.27472
O         35.68099       35.54422        2.75327
O         34.09662       37.08840        2.56254
H         33.96700       34.72312        7.83416
H         32.82331       36.47338        6.93201
H         32.22671       36.56564        4.53601
H         32.64188       34.85594        4.31697
H         35.01488       35.40771        5.17883
H         34.51996       37.13608        5.23747
N         30.38608       34.21044        6.39517
C         28.93932       34.08131        6.54069
C         28.45845       34.25294        7.97798
O         27.25110       34.31082        8.16967
C         28.46816       32.70165        6.03259
C         28.86903       32.36363        4.58647
C         28.23735       33.26031        3.56879
O         28.57739       34.42691        3.46325
O         27.33322       32.74362        2.72152
H         30.90519       33.40979        6.04070
H         28.46550       34.87745        5.92733
H         27.36049       32.62570        6.11340
H         28.91076       31.92735        6.69424
H         28.53915       31.33009        4.39321
H         29.96570       32.35233        4.42982
N         29.32049       34.32676        9.03479
C         28.88684       34.51037       10.40465
H         27.78386       34.59667       10.49576
H         29.22446       33.64744       11.01505
H         29.34274       35.43841       10.80870
H         30.33485       34.24073        8.88746
Ca        26.66750       33.79362        0.84795
O         29.57801       34.45959        0.42318
H         29.12007       34.00784       -0.32875
H         30.06464       33.73304        0.88659
O         26.67623       36.55272        1.99113
H         27.56599       36.23647        1.69273
H         26.70504       36.47882        2.97792
O         25.64746       33.38560       -2.24188
H         25.11728       32.95026       -1.52855
H         25.09413       34.15557       -2.52683
O         27.01948       36.08284       -1.32734
H         27.88750       36.43764       -1.00979
H         26.36444       36.79086       -1.10377

Ca 1.0



