%chk=apoCaM-CA-Ng.loop1.water3.frame982.chk
%nprocshared=20
%mem=10GB
%nosave
#b3lyp/svp scf=(tight,noincore,xqc) Test 
#IOP(5/87=12) Density=Current Pop=(MK,readradii) iop(6/33=2) iop(6/42=6)

apoCaM-CA-Ng.loop1.water3.frame982 

   0  1 
C         54.29971       88.27830       57.73265
C         53.74257       87.36127       58.78412
O         52.88508       86.54728       58.47286
H         55.39065       88.09580       57.62724
H         53.81736       88.09534       56.74825
H         54.13591       89.33719       58.02139
N         54.20864       87.43456       60.06242
C         53.78787       86.54177       61.13790
C         53.11350       87.28705       62.27710
O         53.70022       88.17721       62.86234
C         54.96931       85.68445       61.64838
C         56.37002       86.27575       61.58332
O         57.19934       85.67492       60.91825
O         56.78224       87.40900       62.19809
H         54.92131       88.14878       60.27801
H         53.03279       85.81302       60.76788
H         55.00353       84.79366       60.97906
H         54.73671       85.28744       62.66042
N         51.85310       86.93527       62.66076
C         51.13747       87.56069       63.76740
C         51.79668       87.22938       65.10005
O         51.94478       86.05450       65.40675
C         49.67912       87.05833       63.77555
C         48.77583       87.88404       64.70163
C         47.32749       87.39200       64.59935
C         46.36257       88.32852       65.33427
N         44.98324       87.86332       65.19118
H         51.37003       86.19417       62.12931
H         51.10808       88.65858       63.58587
H         49.64222       85.97779       64.04193
H         49.27450       87.17244       62.74550
H         48.82171       88.94348       64.36555
H         49.12145       87.83019       65.75747
H         47.25646       86.36186       65.01353
H         47.02632       87.36620       63.52908
H         46.44595       89.34910       64.89672
H         46.62898       88.38474       66.41265
H         44.34130       88.54160       65.66068
H         44.72589       87.80412       64.17846
H         44.87395       86.92355       65.63654
N         52.16376       88.21842       65.96407
C         52.73101       87.96325       67.29174
C         52.83708       89.25366       68.10405
O         53.15688       90.28622       67.53198
C         54.10014       87.23591       67.23102
C         55.14588       87.93196       66.40583
O         55.57626       89.16602       66.72947
O         55.64822       87.34969       65.45861
H         51.97408       89.19038       65.68076
H         52.03623       87.28844       67.82987
H         53.95482       86.21677       66.81708
H         54.49902       87.10548       68.25891
N         52.66513       89.29221       69.45970
C         52.36657       88.14188       70.29895
C         50.92679       87.68951       70.22675
O         50.11639       88.29414       69.53845
H         52.83300       90.19032       69.94024
H         52.53436       88.42777       71.36026
H         53.06260       87.31065       70.06813
N         50.54389       86.61328       70.96984
C         49.16172       86.16522       71.09962
C         48.36957       87.19521       71.87379
O         47.34506       87.64354       71.38256
C         49.08843       84.80848       71.82711
C         49.78083       83.73312       71.03639
O         50.82285       83.06753       71.56851
O         49.39870       83.45476       69.91031
H         51.27486       86.10454       71.49137
H         48.70990       86.02016       70.09142
H         48.02364       84.51139       71.95229
H         49.54790       84.88664       72.83632
N         48.80110       87.63453       73.09410
C         48.09935       88.64819       73.86647
C         48.06842       90.01461       73.20204
O         47.42759       90.89866       73.75104
H         49.66120       87.23316       73.49780
H         48.59754       88.77086       74.85364
H         47.06027       88.29989       74.04801
N         48.74166       90.27403       72.04217
C         48.72450       91.56175       71.35955
C         50.13448       92.13146       71.33983
O         51.07235       91.45858       71.74587
C         48.18765       91.36437       69.90903
C         46.77604       90.77190       69.88919
O         48.15745       92.58574       69.21777
H         49.31640       89.54101       71.61333
H         48.07242       92.28272       71.89932
H         48.87834       90.65927       69.38840
H         48.20197       92.37431       68.24814
H         46.75131       89.78846       70.38926
H         46.06167       91.45269       70.39699
H         46.44781       90.62346       68.83782
N         50.35313       93.38471       70.85979
C         51.68300       93.96206       70.72169
C         52.33124       94.11570       72.08659
O         53.45613       93.66172       72.24961
C         51.63962       95.29452       69.91272
C         50.91636       95.13993       68.53594
C         53.06481       95.83773       69.69290
C         51.44385       94.01162       67.63831
H         49.53951       93.94035       70.56988
H         52.31110       93.26680       70.12203
H         51.07703       96.06002       70.49199
H         50.98280       96.10136       67.98234
H         49.83484       94.95213       68.68907
H         53.03016       96.78852       69.11969
H         53.56002       96.04933       70.66292
H         53.69090       95.10981       69.13555
H         50.86830       93.99834       66.68888
H         52.51527       94.15184       67.39372
H         51.30008       93.02066       68.11855
N         51.65180       94.66618       73.13464
C         52.21258       94.74261       74.48266
C         52.01501       96.11471       75.10421
O         51.33324       96.95745       74.53518
C         51.62276       93.61402       75.37661
C         50.09424       93.64060       75.48524
O         52.00498       92.36359       74.86469
H         50.67218       94.95702       72.98865
H         53.31199       94.58061       74.44594
H         52.01530       93.71287       76.41565
H         52.93112       92.19384       75.18220
H         49.62310       93.47542       74.49325
H         49.75865       92.82116       76.15769
H         49.74221       94.60485       75.90624
N         52.59874       96.38808       76.30636
C         52.41723       97.62676       77.04937
C         53.76520       98.32825       77.24372
O         53.90381       99.46177       76.80743
C         51.66679       97.28355       78.37019
C         51.33355       98.49688       79.23867
O         52.39545       96.35382       79.13281
H         53.18205       95.65732       76.74153
H         51.75567       98.32344       76.48572
H         50.69291       96.83247       78.05827
H         51.74370       95.71852       79.53059
H         50.73593       98.17105       80.11740
H         52.24764       98.97080       79.62310
H         50.74785       99.24492       78.66671
N         54.79121       97.72148       77.90908
C         56.07419       98.35396       78.23350
C         57.23939       97.48688       77.79119
O         57.19626       96.27912       77.98264
C         56.14501       98.51713       79.76190
C         55.21576       99.64526       80.23859
C         54.85554       99.54391       81.72422
C         56.06258       99.58300       82.66678
N         55.62147       99.47208       84.05705
H         54.63847       96.77113       78.27453
H         56.18402       99.36481       77.77947
H         57.17582       98.77572       80.09200
H         55.86624       97.54291       80.22153
H         54.26359       99.59598       79.69183
H         55.67215      100.62982       79.99312
H         54.30314       98.59150       81.88347
H         54.17018      100.38400       81.97142
H         56.61858      100.53550       82.52541
H         56.74526       98.73518       82.44066
H         55.09967       98.57563       84.19717
H         56.45628       99.47737       84.68550
H         55.00250      100.27847       84.30330
N         58.37711       98.06522       77.30198
C         59.57402       97.29718       76.97445
C         59.30732       96.33153       75.82262
O         59.47741       95.14073       76.04243
C         60.79238       98.22664       76.73877
C         62.07355       97.43644       76.41653
C         63.25498       98.34828       76.24686
O         63.25668       99.19872       75.37086
O         64.32946       98.21677       77.04826
H         58.41309       99.09347       77.22215
H         59.84998       96.69647       77.87267
H         60.96290       98.81351       77.66935
H         60.60048       98.95837       75.93677
H         61.93993       96.86330       75.47430
H         62.28242       96.71904       77.23990
N         58.87764       96.70297       74.58051
C         58.59292       98.05862       74.16228
H         57.80991       98.50940       74.80479
H         59.50786       98.67521       74.15987
H         58.21605       98.05195       73.11797
H         58.71846       95.95883       73.88355
Ca        56.03430       89.18162       63.39404
O         58.71853       89.03369       64.90983
H         59.45382       89.69657       64.89597
H         58.94477       88.39624       64.18655
O         56.72392       91.84602       64.93458
H         56.60080       92.00713       65.90371
H         57.67410       92.06557       64.76367
O         53.75706       91.10056       64.29145
H         53.40329       91.19200       63.37134
H         52.96580       91.21859       64.87364

Ca 1.0



