%chk=apoCaM-CA-Ng.loop2.water5.frame466.chk
%nprocshared=20
%mem=10GB
%nosave
#b3lyp/svp scf=(tight,noincore,xqc) Test 
#IOP(5/87=12) Density=Current Pop=(MK,readradii) iop(6/33=2) iop(6/42=6)

apoCaM-CA-Ng.loop2.water5.frame466 

   -2  1 
C         35.85157       49.70498       72.87068
C         35.24143       50.20746       71.59592
O         35.87955       50.09689       70.55982
H         36.79804       50.25623       73.05933
H         35.17603       49.86756       73.73619
H         36.07264       48.62199       72.78186
N         34.02526       50.82454       71.60863
C         33.43810       51.44598       70.42540
C         33.59059       52.95475       70.56802
O         34.00631       53.41697       71.61916
C         31.97696       50.96470       70.27040
C         31.30172       51.45368       69.01987
O         31.74340       51.15067       67.92278
O         30.19018       52.20974       69.10415
H         33.53671       50.94340       72.50906
H         34.01305       51.14949       69.52127
H         31.39050       51.29031       71.15723
H         31.96322       49.85308       70.24024
N         33.35226       53.78911       69.51375
C         33.63402       55.22146       69.57731
C         35.12991       55.48588       69.75161
O         35.90679       54.53518       69.81526
C         33.12125       55.89913       68.29927
H         33.00178       53.39024       68.63324
H         33.08007       55.66207       70.43635
H         33.64946       55.50031       67.40762
H         32.03230       55.70821       68.19052
H         33.26374       56.99801       68.34296
N         35.61281       56.75695       69.82330
C         37.02158       57.07967       70.01401
C         37.58338       57.76996       68.79438
O         37.06811       58.80767       68.38992
C         37.20979       58.00608       71.22627
C         36.80494       57.34325       72.50348
O         37.44117       56.22902       72.90860
O         35.92049       57.82387       73.19195
H         34.95219       57.54673       69.73737
H         37.62034       56.15779       70.19850
H         36.62355       58.94039       71.07737
H         38.28386       58.28207       71.31754
N         38.70235       57.28158       68.20181
C         39.38079       57.97077       67.12202
C         40.69494       57.29441       66.83337
O         40.93303       56.86247       65.71557
H         39.12539       56.41788       68.58227
H         39.60884       59.01244       67.44376
H         38.73087       58.01175       66.22134
N         41.61496       57.20133       67.83320
C         42.93762       56.60694       67.67182
C         42.85476       55.08688       67.64522
O         41.77518       54.53736       67.81916
C         43.83818       57.06662       68.84316
C         43.95857       58.57622       68.93853
N         44.62095       59.13489       69.97532
O         43.44967       59.30138       68.09459
H         41.37324       57.62526       68.74345
H         43.39070       56.97721       66.72508
H         44.86069       56.64499       68.74186
H         43.39777       56.69022       69.79255
H         45.04546       58.54608       70.70589
H         44.69241       60.16028       70.05590
N         43.97984       54.34271       67.43917
C         43.99170       52.88669       67.42874
C         44.96248       52.32526       68.44538
O         45.60439       53.07518       69.16752
H         44.87315       54.82686       67.26344
H         44.31102       52.54717       66.42008
H         42.98478       52.46324       67.63034
N         45.13803       50.97605       68.51825
C         46.11451       50.33775       69.39798
C         45.81961       50.59826       70.87134
O         46.71175       51.07481       71.55998
C         46.28489       48.81992       69.08101
C         45.05193       47.93253       69.30841
O         46.76721       48.65295       67.76888
H         44.58382       50.39162       67.87610
H         47.11544       50.77399       69.17439
H         47.07656       48.42813       69.75746
H         46.01672       48.79771       67.13644
H         44.76520       47.93276       70.37149
H         44.19103       48.25831       68.68966
H         45.29852       46.88282       69.04209
N         44.60103       50.32444       71.42337
C         44.30168       50.50197       72.84720
C         43.30152       51.62129       73.07014
O         42.85521       52.23778       72.11085
C         43.88241       49.14288       73.50288
C         42.72878       48.36979       72.80567
C         45.11494       48.22823       73.59442
C         41.39470       49.10825       72.74994
H         43.84745       49.98750       70.80655
H         45.20293       50.85805       73.39382
H         43.57615       49.32583       74.55384
H         42.55355       47.42949       73.37359
H         43.01260       48.07897       71.77625
H         44.86046       47.28633       74.12536
H         45.50899       47.97730       72.58937
H         45.92045       48.73020       74.17321
H         41.46170       50.01113       72.11408
H         40.63163       48.44142       72.29418
H         41.06095       49.38361       73.77188
N         42.94484       51.96588       74.34374
C         42.08055       53.09030       74.66986
C         42.83685       54.00284       75.63361
O         42.31287       54.36000       76.67717
C         40.77579       52.52266       75.27599
C         39.69743       53.53382       75.54905
O         38.54028       53.11689       76.09635
O         39.84574       54.71543       75.27890
H         43.32284       51.42431       75.13566
H         41.83320       53.66104       73.74819
H         41.02029       51.99255       76.22368
H         40.34893       51.78049       74.56777
N         44.13118       54.34377       75.37020
C         44.98721       55.09514       76.29227
C         45.01206       54.41712       77.66118
O         45.16775       53.20401       77.69917
C         46.40733       55.20558       75.67992
C         47.37588       56.01071       76.51750
C         47.71284       57.32224       76.13929
C         47.96109       55.46260       77.67454
C         48.60120       58.07558       76.91236
C         48.85784       56.21648       78.43840
C         49.17353       57.52345       78.06056
H         44.54684       53.99561       74.49182
H         44.58153       56.12368       76.38693
H         46.28144       55.70855       74.69573
H         46.84743       54.20432       75.47598
H         47.27700       57.76835       75.25430
H         47.73316       54.45058       77.98277
H         48.84547       59.08868       76.62057
H         49.30671       55.78793       79.32536
H         49.86312       58.10786       78.65595
N         44.87874       55.11736       78.83652
C         44.90199       54.48939       80.15277
C         43.68760       53.62419       80.43736
O         43.74897       52.79683       81.33575
C         44.89880       55.67807       81.12610
C         45.59387       56.75086       80.31558
C         44.92776       56.56100       78.95671
H         45.85171       53.91375       80.23129
H         43.85451       56.04233       81.27467
H         45.33614       55.45848       82.12351
H         45.51313       57.77786       80.73001
H         46.66991       56.47803       80.23328
H         43.88757       56.95544       78.97766
H         45.52450       57.07454       78.17807
N         42.50485       53.86012       79.79744
C         41.26175       53.16841       80.12713
C         41.28565       51.69176       79.75148
O         40.34253       50.99949       80.11036
C         40.05688       53.84365       79.42803
C         39.87103       55.31182       79.85229
C         38.69214       55.92939       79.16007
O         37.65936       56.40503       79.88114
O         38.67338       56.02332       77.94337
H         42.47572       54.61625       79.10293
H         41.10580       53.24843       81.22649
H         39.12519       53.29426       79.69056
H         40.19681       53.78455       78.32796
H         40.76422       55.91967       79.60189
H         39.71588       55.35603       80.95171
N         42.29877       51.13727       79.02307
C         42.33600       49.73644       78.65208
H         43.25980       49.27444       79.05815
H         41.46441       49.16793       79.03987
H         42.34486       49.64988       77.54534
H         43.07988       51.71868       78.69254
Ca        36.86674       55.43415       75.60989
O         35.08408       52.87241       75.91099
H         34.22531       53.30505       75.67575
H         34.88450       52.35653       76.73185
O         34.80250       55.55250       77.79066
H         35.72505       55.75249       78.08788
H         34.28416       56.35831       78.03839
O         34.14054       55.73502       74.44024
H         33.55905       56.37983       74.91551
H         34.00326       55.93130       73.47974
O         36.60365       58.41101       76.02553
H         36.83645       58.34706       76.98547
H         37.46860       58.56690       75.56899
O         36.82197       53.29401       73.21362
H         37.01393       53.24804       72.24361
H         36.02576       53.87841       73.28077

Ca 1.0



