%chk=apoCaM-CA-Ng.loop2.water5.frame464.chk
%nprocshared=20
%mem=10GB
%nosave
#b3lyp/svp scf=(tight,noincore,xqc) Test 
#IOP(5/87=12) Density=Current Pop=(MK,readradii) iop(6/33=2) iop(6/42=6)

apoCaM-CA-Ng.loop2.water5.frame464 

   -2  1 
C         42.95133       71.29074       79.41574
C         42.83647       72.41972       78.43364
O         43.69196       72.54398       77.57407
H         42.99014       71.69405       80.44867
H         42.06862       70.62361       79.31846
H         43.86983       70.69431       79.22817
N         41.76852       73.26242       78.49684
C         41.51333       74.37791       77.58315
C         42.53242       75.51147       77.75501
O         42.19907       76.51213       78.37752
C         40.06552       74.89335       77.83362
C         39.60838       75.98295       76.89295
O         38.37353       76.49986       77.03735
O         40.33184       76.40302       76.00307
H         41.06379       73.06071       79.22473
H         41.52917       74.01331       76.53196
H         39.98133       75.26828       78.87766
H         39.35755       74.04370       77.71860
N         43.77033       75.45865       77.17526
C         44.72254       76.56335       77.23609
C         45.96554       76.15790       78.01067
O         46.67805       75.25065       77.60387
C         45.06737       77.02840       75.82085
H         44.04136       74.63218       76.62796
H         44.26364       77.43602       77.74819
H         44.14107       77.35444       75.29958
H         45.76941       77.88815       75.85979
H         45.53154       76.20555       75.23659
N         46.24672       76.79088       79.18372
C         47.36169       76.45947       80.06595
C         48.67078       77.00213       79.52956
O         48.74350       78.20367       79.30464
C         47.16031       77.13069       81.44790
C         45.93114       76.66407       82.17844
O         46.05497       76.10930       83.39515
O         44.81741       76.82942       81.70789
H         45.58906       77.52037       79.49530
H         47.40685       75.35941       80.23342
H         47.09670       78.23480       81.32805
H         48.04551       76.90568       82.08460
N         49.77693       76.21047       79.40070
C         51.09361       76.77773       79.14010
C         51.67651       76.30829       77.84298
O         51.84488       77.12841       76.95098
H         49.70442       75.19633       79.57601
H         51.78307       76.51741       79.97292
H         51.05052       77.88718       79.11014
N         52.08345       75.01942       77.68577
C         52.73405       74.55021       76.46774
C         52.01070       73.35047       75.90038
O         51.08396       72.84004       76.51614
C         54.20414       74.20707       76.77877
C         54.94516       75.42687       77.27331
N         55.46707       75.46419       78.52148
O         55.06796       76.39598       76.53851
H         51.98336       74.36341       78.47669
H         52.71907       75.33929       75.68352
H         54.72323       73.83460       75.86950
H         54.23321       73.40023       77.54365
H         55.36870       74.66297       79.16143
H         55.96382       76.30405       78.85438
N         52.38372       72.85651       74.68943
C         51.76139       71.69641       74.08314
C         52.10245       70.42174       74.81892
O         52.80321       70.45256       75.82250
H         53.12740       73.33604       74.15858
H         52.16147       71.58702       73.05095
H         50.66179       71.84019       74.01344
N         51.69119       69.23294       74.30215
C         52.14283       67.95041       74.83218
C         51.56941       67.59706       76.20749
O         52.05389       66.62889       76.77482
C         51.92597       66.80424       73.79961
C         50.45735       66.52686       73.44205
O         52.67439       67.04941       72.63262
H         51.14421       69.26385       73.42971
H         53.24712       68.02470       74.95935
H         52.32913       65.86679       74.24047
H         52.22759       67.76913       72.11619
H         49.96326       67.40884       72.98577
H         50.40132       65.68704       72.71812
H         49.89853       66.23003       74.34001
N         50.54749       68.29344       76.80052
C         50.02014       67.94332       78.13008
C         49.98124       69.14231       79.06859
O         50.26492       70.25743       78.65802
C         48.60586       67.26472       78.06640
C         47.38249       68.18230       77.77671
C         48.61098       66.02994       77.16459
C         47.31128       68.85771       76.40945
H         50.12677       69.07139       76.28481
H         50.69183       67.19322       78.60137
H         48.40626       66.86107       79.08168
H         47.32032       68.97327       78.54906
H         46.46760       67.55909       77.88491
H         47.64826       65.48356       77.25458
H         48.74148       66.32688       76.11549
H         49.43030       65.33916       77.45830
H         46.34537       69.40055       76.33304
H         48.10055       69.61852       76.29163
H         47.35522       68.11384       75.58892
N         49.54873       68.95813       80.35151
C         49.24775       70.03134       81.28594
C         50.04391       69.85325       82.57076
O         50.72982       70.79455       82.94993
C         47.72245       70.03290       81.50136
C         47.23346       71.17583       82.33382
O         46.46740       70.93196       83.41103
O         47.46811       72.32757       82.00237
H         49.32729       68.00292       80.65999
H         49.50534       71.02002       80.84253
H         47.38764       69.06898       81.94166
H         47.23772       70.14576       80.50890
N         50.06473       68.66646       83.25638
C         50.92333       68.43957       84.41833
C         50.16475       67.75697       85.54612
O         49.64728       66.67348       85.30544
C         52.14287       67.58283       84.00448
C         53.16654       67.50418       85.12362
C         54.36230       68.23739       85.02596
C         52.93696       66.73247       86.28059
C         55.29215       68.21999       86.06967
C         53.87006       66.71731       87.32069
C         55.04422       67.46490       87.21798
H         49.53295       67.86371       82.88628
H         51.34524       69.40717       84.75083
H         52.60415       68.09847       83.13359
H         51.85350       66.56464       83.66213
H         54.56732       68.84107       84.15097
H         52.03878       66.14158       86.38831
H         56.20225       68.79976       85.99079
H         53.67940       66.12913       88.20940
H         55.76222       67.45843       88.02766
N         50.13218       68.24936       86.82535
C         49.56293       67.54352       87.96403
C         48.14188       67.05227       87.76667
O         47.91358       65.85961       87.91109
C         49.65037       68.56464       89.10609
C         50.94016       69.27285       88.77112
C         50.81662       69.45513       87.26114
H         50.22616       66.67418       88.18277
H         48.84544       69.32638       89.01037
H         49.60048       68.12366       90.12426
H         51.14073       70.20952       89.33292
H         51.76909       68.55423       88.97086
H         50.19803       70.33324       86.98817
H         51.84911       69.55413       86.86470
N         47.12927       67.91369       87.46036
C         45.73778       67.47445       87.35486
C         45.49077       66.48777       86.22067
O         44.42892       65.87918       86.20475
C         44.77917       68.67668       87.21671
C         44.98657       69.47555       85.91644
C         44.02100       70.61956       85.83835
O         44.47622       71.88436       85.80170
O         42.81915       70.41052       85.80341
H         47.35460       68.91326       87.36428
H         45.49257       66.96198       88.31254
H         44.92715       69.35244       88.08796
H         43.73211       68.30232       87.24986
H         44.83742       68.82568       85.02774
H         46.01880       69.87712       85.87998
N         46.39149       66.30132       85.21807
C         46.15934       65.37104       84.13596
H         45.23123       65.64609       83.59133
H         47.01151       65.39982       83.42386
H         46.06459       64.33981       84.53745
H         47.25665       66.85194       85.19847
Ca        46.36460       73.58235       84.48661
O         47.08710       73.85995       87.35392
H         46.65574       74.74274       87.23102
H         46.38219       73.29232       87.75549
O         44.23218       75.27207       85.83527
H         43.50032       74.63197       85.64881
H         43.94099       76.11558       85.40667
O         43.83230       73.32896       82.70064
H         43.33233       74.02748       82.20824
H         43.13117       72.75062       83.09372
O         48.97046       74.93872       84.13266
H         49.61606       74.35572       83.66008
H         49.26725       74.92710       85.07725
O         48.28541       71.50831       85.65072
H         49.10443       72.01204       85.41590
H         48.36362       70.66132       85.14428

Ca 1.0



