%chk=apoCaM-CA-Ng.loop2.water3.frame993.chk
%nprocshared=20
%mem=10GB
%nosave
#b3lyp/svp scf=(tight,noincore,xqc) Test 
#IOP(5/87=12) Density=Current Pop=(MK,readradii) iop(6/33=2) iop(6/42=6)

apoCaM-CA-Ng.loop2.water3.frame993 

   -2  1 
C         57.28062       95.62338       48.36644
C         55.87029       95.24083       48.70162
O         55.17869       94.74407       47.82388
H         57.84231       94.72280       48.04140
H         57.27279       96.36367       47.53841
H         57.79849       96.07327       49.23866
N         55.36949       95.44730       49.95422
C         53.99972       95.12196       50.32335
C         53.99305       94.06519       51.41485
O         53.42770       94.29061       52.47684
C         53.26676       96.42199       50.72647
C         51.80957       96.19377       51.02985
O         51.06498       95.74263       50.17409
O         51.31867       96.49366       52.24783
H         55.97793       95.86461       50.67554
H         53.45500       94.68868       49.45587
H         53.33049       97.14981       49.88906
H         53.76810       96.87059       51.61248
N         54.58134       92.85380       51.19411
C         54.46774       91.73820       52.12962
C         55.82398       91.29927       52.66463
O         56.83089       91.76040       52.14523
C         53.79528       90.58427       51.37621
H         55.07985       92.69817       50.30327
H         53.83935       92.04277       52.98959
H         54.43557       90.26236       50.52409
H         53.61275       89.71184       52.02062
H         52.81625       90.91491       50.97127
N         55.97355       90.41093       53.69881
C         54.89983       89.86156       54.53135
C         55.10983       90.22850       55.99671
O         56.13406       90.79724       56.34609
C         54.77046       88.33356       54.33838
C         56.06864       87.58339       54.42506
O         56.82555       87.59320       55.53538
O         56.44930       86.94323       53.45799
H         56.93556       90.13976       53.95227
H         53.92206       90.30083       54.25999
H         54.35892       88.13903       53.32804
H         54.04229       87.91372       55.06394
N         54.11640       89.98487       56.89981
C         54.16989       90.36678       58.30345
C         53.69822       89.22623       59.18010
O         52.60823       89.34176       59.72227
H         53.23257       89.57692       56.55761
H         53.44660       91.20224       58.43051
H         55.16304       90.74675       58.61906
N         54.39571       88.07038       59.36721
C         55.74852       87.82078       58.89148
C         56.73160       88.54407       59.80431
O         56.74871       88.26027       60.99431
C         55.98843       86.29152       58.87540
C         57.31816       85.85515       58.32500
N         57.58223       84.53733       58.17854
O         58.15578       86.67712       57.99766
H         53.93439       87.32859       59.91916
H         55.83643       88.16423       57.84122
H         55.20549       85.84050       58.22608
H         55.87660       85.87302       59.89889
H         56.88252       83.82808       58.44014
H         58.48071       84.22282       57.78953
N         57.56252       89.51023       59.31920
C         58.40663       90.33714       60.17364
C         59.82853       89.83466       60.32776
O         60.59647       90.50765       61.00172
H         57.50685       89.75439       58.32116
H         57.94117       90.45867       61.17584
H         58.45533       91.35368       59.72696
N         60.26361       88.68315       59.74452
C         61.63280       88.18254       59.84671
C         62.25513       88.07548       58.46350
O         61.57620       88.32058       57.47484
C         61.63302       86.79218       60.53864
C         61.12232       86.87203       61.97924
O         60.83800       85.89535       59.80385
H         59.60174       88.12786       59.19262
H         62.26784       88.87502       60.44209
H         62.68027       86.41491       60.58175
H         61.13855       84.97859       60.03927
H         61.76319       87.55841       62.57233
H         60.07253       87.23091       62.00996
H         61.16565       85.86457       62.44647
N         63.54293       87.65539       58.32282
C         64.15689       87.35399       57.03694
C         64.25224       85.85381       56.96247
O         64.85447       85.25020       57.84321
C         65.54014       88.04626       56.87198
C         66.21206       87.59850       55.54061
C         65.36189       89.57501       56.91523
C         67.62158       88.15064       55.32769
H         64.08931       87.43865       59.17154
H         63.51454       87.69465       56.20202
H         66.19510       87.73823       57.71732
H         65.57919       87.89022       54.67700
H         66.31184       86.49207       55.53419
H         66.33882       90.09564       56.86323
H         64.72843       89.91622       56.06772
H         64.88157       89.88604       57.86600
H         68.03762       87.73203       54.38605
H         67.61682       89.25413       55.22866
H         68.28252       87.85219       56.16866
N         63.66156       85.18110       55.93664
C         63.61650       83.72907       55.87330
C         64.53874       83.19487       54.79789
O         64.71186       81.98762       54.73316
C         62.18637       83.25354       55.52799
C         61.10170       84.11857       56.09824
O         60.93232       84.23154       57.30018
O         60.36527       84.82498       55.21535
H         63.21158       85.71929       55.17821
H         63.92792       83.31065       56.85605
H         62.04751       82.18139       55.78399
H         62.06016       83.34539       54.42419
N         65.07487       84.02312       53.84758
C         65.81036       83.50329       52.71056
C         65.96613       84.58636       51.63777
O         66.54274       85.62010       51.94055
C         67.20020       82.98271       53.13014
C         67.83998       82.29916       51.95008
C         68.68481       83.01030       51.08233
C         67.53458       80.95690       51.67078
C         69.21136       82.38623       49.94834
C         68.07135       80.33388       50.54173
C         68.90575       81.04913       49.67864
H         64.86321       85.02848       53.86202
H         65.21878       82.65690       52.31577
H         67.13466       82.25890       53.97044
H         67.82576       83.82906       53.49105
H         68.91466       84.05164       51.27087
H         66.87516       80.39802       52.32399
H         69.84887       82.94238       49.27393
H         67.83147       79.29985       50.33124
H         69.31072       80.56870       48.79805
N         65.52341       84.40932       50.34886
C         65.76826       85.35705       49.26450
C         65.18284       86.75148       49.41268
O         65.43220       87.56210       48.52907
C         65.09804       84.69275       48.05393
C         65.27908       83.22803       48.35527
C         64.94784       83.17976       49.83976
H         66.87236       85.42083       49.13755
H         63.99843       84.88130       48.09255
H         65.48087       85.03203       47.06820
H         64.68018       82.53284       47.73014
H         66.36075       82.99164       48.22741
H         63.85183       83.19482       50.03122
H         65.41433       82.25380       50.23259
N         64.35210       87.10314       50.43691
C         63.69988       88.41125       50.48359
C         64.66713       89.58195       50.63900
O         64.21482       90.71210       50.51686
C         62.62111       88.45662       51.58726
C         63.20036       88.36106       53.00753
C         62.10479       88.41901       54.02460
O         61.25528       87.54370       54.06690
O         62.05949       89.43791       54.90273
H         64.10273       86.39627       51.14203
H         63.16926       88.53926       49.51283
H         61.90358       87.62357       51.41648
H         62.05597       89.41172       51.49891
H         63.89275       89.21249       53.18207
H         63.76334       87.41557       53.14666
N         65.99021       89.40406       50.92576
C         66.92502       90.50265       51.07365
H         67.74845       90.38432       50.33883
H         66.45160       91.49318       50.90598
H         67.35087       90.48835       52.09858
H         66.36779       88.45710       51.06416
Ca        58.65414       86.27617       55.37517
O         59.57122       90.18374       56.67604
H         58.71970       90.31069       56.18925
H         60.15292       90.91736       56.35527
O         59.31362       89.54668       53.15540
H         59.66975       90.21433       53.79354
H         59.09556       90.07242       52.34630
O         59.16450       85.76396       52.29134
H         59.95595       85.19683       52.47019
H         58.40950       85.26567       52.69379

Ca 1.0



