%chk=apoCaM-CA-Ng.loop1.water2.frame889.chk
%nprocshared=20
%mem=10GB
%nosave
#b3lyp/svp scf=(tight,noincore,xqc) Test 
#IOP(5/87=12) Density=Current Pop=(MK,readradii) iop(6/33=2) iop(6/42=6)

apoCaM-CA-Ng.loop1.water2.frame889 

   0  1 
C          6.85212       -1.50788       44.57947
C          6.86936       -0.06138       44.98322
O          5.83709        0.44687       45.39589
H          6.14490       -1.65119       43.73584
H          7.85739       -1.85309       44.25629
H          6.52800       -2.12939       45.43946
N          8.01046        0.67239       44.85980
C          8.10502        2.08971       45.21143
C          8.18555        2.95108       43.96062
O          8.25264        2.41595       42.86241
C          9.25825        2.33786       46.21450
C         10.63344        1.92783       45.74224
O         10.82275        1.38040       44.52498
O         11.58917        2.07908       46.48582
H          8.82910        0.20197       44.45351
H          7.16592        2.40869       45.71439
H          9.03837        1.76491       47.14162
H          9.28424        3.41584       46.48341
N          8.05826        4.30767       44.05604
C          7.81056        5.14904       42.88555
C          9.07170        5.60258       42.16519
O          8.92415        6.20325       41.10845
C          6.95648        6.37935       43.26950
C          5.56691        5.97778       43.79515
C          4.70923        7.21423       44.09254
C          3.29797        6.81126       44.54286
N          2.47120        7.99132       44.79455
H          7.91891        4.71197       44.99488
H          7.20940        4.56486       42.15149
H          6.80144        7.00469       42.36241
H          7.49405        6.99102       44.02758
H          5.66213        5.36712       44.71879
H          5.05597        5.36724       43.01832
H          4.62670        7.83103       43.17086
H          5.19533        7.82199       44.88711
H          3.36016        6.19940       45.47017
H          2.81872        6.19636       43.74834
H          2.88986        8.56827       45.55970
H          2.38940        8.56536       43.92378
H          1.51499        7.68387       45.08532
N         10.33301        5.38587       42.64445
C         11.51812        5.84855       41.90852
C         11.62022        5.14341       40.54981
O         10.94349        4.14064       40.37498
C         12.81124        5.65669       42.74220
C         13.15438        4.21886       43.01955
O         12.34256        3.46477       43.77342
O         14.19351        3.73904       42.59573
H         10.44152        4.92458       43.55726
H         11.38772        6.93838       41.75476
H         12.70871        6.18984       43.71122
H         13.66616        6.11522       42.21723
N         12.41090        5.55772       39.51369
C         13.20453        6.77478       39.43289
C         12.35900        8.02732       39.35888
O         11.14618        7.96606       39.50483
H         12.42878        4.96025       38.67148
H         13.77332        6.73524       38.47784
H         13.95422        6.84052       40.24072
N         12.95978        9.21196       39.05539
C         12.24531       10.47405       38.91895
C         12.21567       10.86374       37.45434
O         13.26581       10.95484       36.83220
C         12.94036       11.55387       39.77607
C         12.24303       12.89405       39.77521
O         12.77184       13.91025       40.48215
O         11.20638       13.07543       39.15545
H         13.97447        9.21049       38.86406
H         11.20030       10.37170       39.28648
H         13.98103       11.69803       39.41135
H         12.98697       11.20096       40.82855
N         11.02538       11.12323       36.84102
C         10.92067       11.50226       35.44366
C         11.15399       10.35356       34.48481
O         11.10918       10.60438       33.28817
H         10.15707       11.10169       37.39652
H         11.62382       12.33857       35.23656
H          9.89077       11.87029       35.24667
N         11.37227        9.07311       34.91113
C         11.56124        7.94670       34.00163
C         12.96190        7.38200       34.17252
O         13.64455        7.74707       35.12231
C         10.42691        6.91381       34.25126
C         10.42121        5.72017       33.29542
O         10.48760        6.42886       35.57023
H         11.39841        8.86932       35.92050
H         11.48755        8.29874       32.94922
H          9.45748        7.44112       34.07587
H          9.84798        6.96015       36.11293
H          9.52485        5.09347       33.48990
H         10.38471        6.06551       32.24027
H         11.30879        5.07746       33.45725
N         13.48324        6.54133       33.23337
C         14.84461        6.01264       33.28746
C         15.70942        6.59183       32.16762
O         16.92366        6.55489       32.30417
C         14.82680        4.44874       33.33835
C         16.22882        3.79778       33.46243
C         14.11251        3.83122       32.11974
C         17.00255        4.22344       34.70946
H         12.89551        6.30859       32.42248
H         15.31423        6.37039       34.22683
H         14.24218        4.15612       34.23985
H         16.83941        4.01087       32.55919
H         16.09880        2.69417       33.52178
H         14.08164        2.72458       32.21606
H         13.05825        4.16107       32.04937
H         14.63659        4.09290       31.17683
H         16.41894        3.98852       35.62414
H         17.96259        3.66907       34.74996
H         17.24226        5.30478       34.68889
N         15.17173        7.14994       31.04096
C         15.97465        7.78127       30.00066
C         16.06451        6.84803       28.81510
O         15.04229        6.37731       28.33633
C         15.37381        9.14260       29.58806
C         15.24923       10.09291       30.78464
O         16.20651        9.72610       28.61723
H         14.15760        7.10888       30.87828
H         17.00539        7.98136       30.37025
H         14.35948        8.96715       29.15881
H         15.67529       10.42984       28.16154
H         14.82522       11.06319       30.44910
H         14.56816        9.66839       31.55225
H         16.24447       10.27703       31.24201
N         17.28515        6.54531       28.29223
C         17.49344        5.59153       27.21221
C         18.49231        4.54062       27.66643
O         18.18588        3.35885       27.59153
C         17.96003        6.31179       25.92146
C         17.98390        5.33371       24.73331
O         19.22423        6.89699       26.10161
H         18.10801        7.02787       28.68038
H         16.53312        5.09082       26.95395
H         17.21635        7.10926       25.69326
H         19.43554        7.39957       25.27187
H         18.70176        4.50571       24.90742
H         16.97194        4.90088       24.57677
H         18.27451        5.86528       23.80304
N         19.71176        4.91234       28.15763
C         20.75820        3.97736       28.53668
C         21.05705        4.04529       30.02121
O         20.56343        4.91447       30.72740
C         22.04354        4.35066       27.76147
C         21.91875        4.09519       26.25228
C         23.12034        4.64876       25.46573
C         23.05884        6.18180       25.31522
N         24.20648        6.68517       24.56123
H         19.93226        5.91357       28.25997
H         20.45423        2.93063       28.31648
H         22.91634        3.76452       28.12335
H         22.25828        5.42062       27.96970
H         20.98921        4.53393       25.83374
H         21.87082        2.99280       26.11741
H         23.09243        4.21761       24.44211
H         24.07054        4.32986       25.94874
H         23.03450        6.68542       26.30368
H         22.12361        6.44669       24.77139
H         24.26997        6.21148       23.63102
H         24.09011        7.71332       24.40791
H         25.08591        6.52205       25.10307
N         21.90534        3.11832       30.54247
C         22.40547        3.11355       31.90910
C         21.29351        3.06836       32.95658
O         21.28138        3.96502       33.78805
C         23.44129        1.97354       32.06744
C         24.25260        2.06207       33.36295
C         25.34412        1.02741       33.35570
O         25.03788       -0.28270       33.29365
O         26.51536        1.37113       33.38818
H         22.25567        2.38891       29.90090
H         22.97058        4.06337       32.04862
H         24.16712        2.06995       31.22827
H         22.96196        0.97572       31.98714
H         23.59797        1.90857       34.24610
H         24.71454        3.07195       33.43122
N         20.31707        2.11472       33.03034
C         20.11354        1.01571       32.11098
H         19.09974        1.10629       31.66555
H         20.84075        0.98957       31.28466
H         20.17058        0.05687       32.66665
H         19.63308        2.18723       33.79956
Ca        12.81547        0.60234       43.78168
O         14.53657        0.54576       46.19467
H         13.59695        0.27841       46.35496
H         15.03621        0.14547       46.94887
O         11.07822        1.37472       41.37892
H         10.60210        2.07664       41.88812
H         11.96773        1.76856       41.19455

Ca 1.0



