%chk=apoCaM-CA-Ng.loop2.water4.frame183.chk
%nprocshared=20
%mem=10GB
%nosave
#b3lyp/svp scf=(tight,noincore,xqc) Test 
#IOP(5/87=12) Density=Current Pop=(MK,readradii) iop(6/33=2) iop(6/42=6)

apoCaM-CA-Ng.loop2.water4.frame183 

   -2  1 
C        104.47101       59.25564       28.05711
C        105.95337       59.41990       28.21155
O        106.68745       58.90204       27.38188
H        103.91806       59.77792       28.86563
H        104.15520       59.68260       27.08164
H        104.21045       58.17711       28.08396
N        106.46786       60.14050       29.24905
C        107.89432       60.37323       29.42960
C        108.40482       59.77997       30.74091
O        109.57735       59.96810       31.03059
C        108.15774       61.89048       29.32753
C        109.62489       62.21580       29.23133
O        110.20705       63.00660       30.15190
O        110.29074       61.77729       28.30578
H        105.82081       60.56812       29.93009
H        108.46838       59.88563       28.61088
H        107.69792       62.41229       30.19500
H        107.68241       62.27588       28.39909
N        107.61762       59.00978       31.55990
C        108.12271       58.34113       32.75679
C        109.20013       57.35156       32.35420
O        108.83290       56.36081       31.74120
C        108.53059       59.34376       33.84235
H        106.63463       58.83111       31.31045
H        107.30092       57.74430       33.21525
H        107.64796       59.95624       34.12321
H        108.86672       58.78889       34.74562
H        109.33750       60.02785       33.51808
N        110.53602       57.57493       32.56165
C        111.56441       56.66104       32.07345
C        112.26933       57.24422       30.85598
O        113.48073       57.12845       30.72842
C        112.50458       56.22963       33.22046
C        113.19533       57.39093       33.88966
O        113.95555       58.11144       33.26332
O        112.97823       57.63644       35.19575
H        110.84689       58.44877       33.00592
H        111.09222       55.73409       31.69101
H        113.26649       55.51511       32.83961
H        111.89698       55.69847       33.98456
N        111.52995       57.82340       29.86684
C        112.06722       58.20926       28.57548
C        112.40182       56.94709       27.82742
O        113.53493       56.75974       27.40885
H        110.51695       57.93778       29.99824
H        112.93396       58.89776       28.69057
H        111.27679       58.73944       28.00066
N        111.43803       55.98931       27.71248
C        111.69057       54.65032       27.20533
C        111.78961       54.64792       25.68587
O        110.84707       55.05355       25.02015
C        110.60422       53.66110       27.70025
C        110.50343       53.53889       29.24791
N        111.80670       53.38719       29.88349
O        109.78716       54.60387       29.81040
H        110.51475       56.19246       28.12315
H        112.64670       54.28533       27.63981
H        110.87259       52.65773       27.30721
H        109.60486       53.92667       27.28931
H        112.27554       52.54463       29.47965
H        111.65617       53.20131       30.89885
N        112.92932       54.21218       25.07564
C        113.15012       54.23455       23.63602
C        112.32815       53.21607       22.87436
O        112.46397       52.03199       23.14782
H        113.71356       53.89612       25.66609
H        114.21244       53.96982       23.44336
H        112.98940       55.26451       23.25387
N        111.49003       53.60596       21.86708
C        110.74860       52.66572       21.01961
C        109.26131       52.67378       21.32975
O        108.53207       51.89726       20.72618
C        111.01915       52.93833       19.51445
C        110.44635       54.27137       18.99781
O        112.39413       52.84746       19.23609
H        111.36994       54.61510       21.69605
H        111.08775       51.62725       21.22740
H        110.51392       52.13846       18.92897
H        112.83645       53.64757       19.62346
H        110.89942       55.14053       19.51582
H        110.65289       54.36765       17.91062
H        109.34530       54.30320       19.13794
N        108.75140       53.47709       22.30139
C        107.36895       53.43474       22.75875
C        107.38444       52.91197       24.18490
O        108.47145       52.62942       24.68058
C        106.71873       54.85146       22.62576
C        107.34280       55.89404       23.59873
C        106.80600       55.31917       21.16066
C        106.70541       57.28245       23.52042
H        109.38213       54.10787       22.81278
H        106.76880       52.72303       22.15002
H        105.64117       54.75628       22.88402
H        108.43136       56.01160       23.42535
H        107.19650       55.53538       24.63441
H        106.24381       56.26148       21.00485
H        107.86366       55.48734       20.86413
H        106.36145       54.55755       20.48641
H        106.91439       57.76037       22.54164
H        105.60866       57.22052       23.68097
H        107.14405       57.93283       24.30713
N        106.25161       52.80462       24.93832
C        106.35386       52.52004       26.36197
C        105.37472       51.45611       26.84994
O        104.72918       51.65818       27.86570
C        106.23101       53.87804       27.07892
C        106.55043       53.81823       28.52213
O        106.52648       54.95430       29.24556
O        106.84460       52.75484       29.04287
H        105.34288       53.09275       24.54496
H        107.36234       52.11455       26.59798
H        105.21428       54.30049       26.93313
H        106.97107       54.57954       26.64379
N        105.23208       50.27420       26.19211
C        104.36487       49.19066       26.66592
C        102.96225       49.69802       27.03956
O        102.31909       50.30074       26.19106
C        104.23156       48.12083       25.55950
C        103.25160       47.04014       25.95069
C        103.59683       46.03915       26.87353
C        101.95329       47.06204       25.41233
C        102.65283       45.07435       27.24629
C        101.01116       46.10914       25.79925
C        101.36016       45.11367       26.71368
H        105.75413       50.14782       25.31109
H        104.84434       48.72072       27.54750
H        105.21356       47.67540       25.28666
H        103.85181       48.64362       24.65415
H        104.59121       46.00519       27.30117
H        101.66190       47.83609       24.71299
H        102.91891       44.29994       27.95375
H        100.00898       46.14907       25.39282
H        100.62651       44.37588       27.01057
N        102.39723       49.45387       28.26965
C        101.03201       49.82328       28.62029
C        100.88326       51.31681       28.86804
O         99.81612       51.84307       28.58570
C        100.74063       48.96433       29.85536
C        102.08783       48.89519       30.53467
C        103.02830       48.70588       29.34504
H        100.30379       49.51197       27.83705
H         99.88715       49.30176       30.48138
H        100.52005       47.92864       29.50395
H        102.27682       49.88974       30.99198
H        102.18757       48.12304       31.32740
H        104.03311       49.08872       29.62389
H        103.08621       47.63896       29.04295
N        101.92137       52.07653       29.32438
C        101.86250       53.53360       29.43219
C        101.51614       54.13054       28.07414
O        100.54696       54.87215       27.99079
C        103.21737       54.09143       29.93401
C        103.46313       53.83641       31.43836
C        104.87472       54.22033       31.81756
O        105.10899       55.28605       32.36277
O        105.87845       53.37891       31.48785
H        102.81073       51.60863       29.54741
H        101.07279       53.83948       30.15468
H        103.24624       55.19487       29.78904
H        104.02179       53.65067       29.31720
H        103.30709       52.77180       31.71356
H        102.72727       54.45117       32.00229
N        102.23930       53.81653       26.96246
C        101.94191       54.32251       25.63722
H        101.08648       55.03009       25.63391
H        102.83411       54.84577       25.23465
H        101.69423       53.47213       24.96662
H        103.02579       53.16357       27.04487
Ca       108.13047       53.59643       31.06271
O        107.48780       51.68124       33.72429
H        107.61339       51.94240       34.67107
H        107.52229       50.69171       33.73260
O        107.31810       54.97197       34.23235
H        106.50425       55.41449       34.58160
H        108.05264       55.33815       34.78492
O        109.68203       51.00694       31.42857
H        109.06811       50.23617       31.33564
H        110.25373       50.96626       30.62170
O        110.14999       53.60180       33.31018
H        110.01670       53.65509       34.28916
H        111.01087       53.12540       33.20442

Ca 1.0



