%chk=apoCaM-CA-Ng.loop1.water3.frame1337.chk
%nprocshared=20
%mem=10GB
%nosave
#b3lyp/svp scf=(tight,noincore,xqc) Test 
#IOP(5/87=12) Density=Current Pop=(MK,readradii) iop(6/33=2) iop(6/42=6)

apoCaM-CA-Ng.loop1.water3.frame1337 

   0  1 
C         60.09420       49.20001       23.79855
C         60.85403       50.17692       24.64233
O         60.44469       51.32364       24.73084
H         59.22838       49.69464       23.30729
H         60.75783       48.78020       23.01411
H         59.71783       48.37916       24.44326
N         61.99843       49.78940       25.27341
C         62.78780       50.67345       26.12763
C         63.97051       51.24119       25.36249
O         65.11106       51.08401       25.77710
C         63.19131       49.94914       27.43876
C         64.09599       48.74460       27.27034
O         64.48157       48.37738       26.17086
O         64.50118       48.07092       28.36256
H         62.33007       48.82872       25.10825
H         62.17562       51.55491       26.42304
H         62.26900       49.62108       27.96345
H         63.71714       50.67647       28.09555
N         63.74566       51.97287       24.23701
C         64.81370       52.59922       23.46787
C         65.06448       54.02035       23.96033
O         66.19354       54.27886       24.35398
C         64.60044       52.47933       21.94266
C         64.31849       51.02320       21.53826
C         64.35348       50.83913       20.01896
C         63.99613       49.39444       19.64290
N         64.14960       49.17289       18.20617
H         62.77219       52.10302       23.93788
H         65.75590       52.03096       23.64718
H         65.53379       52.83230       21.45058
H         63.77249       53.11096       21.56722
H         63.31992       50.72764       21.93075
H         65.08740       50.35468       21.98388
H         65.38060       51.07269       19.66183
H         63.63647       51.53246       19.52728
H         62.94359       49.18854       19.94235
H         64.65925       48.68624       20.18790
H         65.15162       49.30205       17.93427
H         63.86424       48.19288       17.97935
H         63.54841       49.83776       17.66796
N         64.10860       54.99451       24.07066
C         62.69816       54.86363       23.71406
C         61.86106       54.63339       24.96470
O         62.39471       54.62725       26.06586
C         62.24370       56.08643       22.89084
C         62.29196       57.33046       23.71801
O         61.48461       57.44966       24.78433
O         63.09973       58.21014       23.46721
H         64.39788       55.87826       24.51997
H         62.54066       53.99580       23.06532
H         61.20706       55.95604       22.51437
H         62.91754       56.18572       22.01130
N         60.53204       54.37063       24.84892
C         59.68636       54.01811       25.97519
C         59.39791       55.15161       26.92822
O         59.87032       56.26461       26.74649
H         60.11445       54.33240       23.90744
H         60.13926       53.16976       26.53251
H         58.70500       53.68209       25.57736
N         58.54829       54.91047       27.96407
C         58.09183       55.92262       28.91917
C         56.94243       55.38413       29.78214
O         56.75553       54.17487       29.82815
C         59.26667       56.43643       29.78659
C         59.98200       55.32149       30.50580
O         61.16353       55.11022       30.28284
O         59.33173       54.55605       31.40257
H         58.16784       53.95359       28.02052
H         57.67663       56.75189       28.31974
H         58.91702       57.17406       30.53248
H         59.99324       56.96459       29.13706
N         56.07424       56.17756       30.47679
C         56.05059       57.63183       30.52333
C         55.80738       58.26246       29.17421
O         55.01963       57.73889       28.39832
H         55.32982       55.70121       31.01102
H         56.95516       58.04281       31.01031
H         55.19241       57.93035       31.16449
N         56.39134       59.45689       28.86805
C         56.13191       60.15988       27.61473
C         56.85418       59.48941       26.45238
O         57.79173       58.73523       26.66776
C         56.47950       61.66663       27.76709
C         56.18389       62.50775       26.52037
O         57.82716       61.81737       28.12296
H         56.96991       59.91319       29.58990
H         55.03552       60.10956       27.42491
H         55.83390       62.04705       28.59452
H         57.91022       62.69788       28.57523
H         55.12116       62.39898       26.21814
H         56.37364       63.57820       26.74354
H         56.84616       62.21708       25.67846
N         56.40396       59.69400       25.18093
C         56.95778       59.12448       23.95494
C         58.34897       59.68678       23.69643
O         59.24331       59.44431       24.49376
C         56.95108       57.55997       23.92840
C         55.67476       56.96900       24.58685
C         57.08847       57.09277       22.46277
C         55.63657       55.43851       24.59598
H         55.57139       60.28993       25.06012
H         56.27945       59.46559       23.13959
H         57.81762       57.18012       24.51432
H         54.75861       57.35741       24.09422
H         55.65243       57.27731       25.65208
H         57.99522       57.52263       21.98968
H         57.17242       55.99075       22.38815
H         56.19929       57.41674       21.87601
H         55.52928       55.03438       23.56936
H         56.55661       55.02794       25.06423
H         54.75924       55.09498       25.18361
N         58.59990       60.45764       22.59794
C         59.89324       61.08510       22.34099
C         59.70711       62.59263       22.27463
O         60.05717       63.21845       21.28484
C         60.56475       60.47082       21.08305
C         59.78796       60.65563       19.77420
O         60.73720       59.09238       21.28730
H         57.83795       60.62859       21.92552
H         60.59520       60.89247       23.18459
H         61.55828       60.96511       20.94163
H         61.67146       58.95708       21.58393
H         59.65426       61.72112       19.50933
H         60.35911       60.18564       18.94590
H         58.79275       60.17209       19.83326
N         59.17749       63.25037       23.34189
C         58.96531       64.69113       23.37546
C         60.05351       65.24834       24.27179
O         59.82732       65.52524       25.44102
C         57.51558       64.99108       23.82544
C         57.14006       66.44705       23.53857
O         56.62744       64.16112       23.11870
H         58.94602       62.71063       24.18765
H         59.09313       65.12719       22.35961
H         57.43625       64.77466       24.91624
H         55.84897       63.99439       23.71387
H         56.10050       66.64194       23.87690
H         57.82832       67.14950       24.04986
H         57.18314       66.63300       22.44163
N         61.32356       65.26110       23.77495
C         62.56182       65.37993       24.53655
C         62.76240       64.14880       25.39296
O         61.81806       63.40162       25.60791
C         62.69295       66.63740       25.41589
C         62.47440       67.95638       24.67533
C         62.87902       69.12324       25.58922
C         62.58663       70.48075       24.94577
N         63.09433       71.56873       25.78238
H         61.44346       65.05704       22.77046
H         63.38533       65.38379       23.78638
H         63.72404       66.63123       25.83501
H         61.98531       66.59104       26.27235
H         61.40365       68.03421       24.38583
H         63.10242       67.99027       23.75895
H         63.97022       69.04266       25.79488
H         62.33318       69.06292       26.55699
H         61.48669       70.59010       24.81660
H         63.06934       70.53794       23.94566
H         64.13676       71.50618       25.85050
H         62.84103       72.48436       25.34658
H         62.67766       71.51994       26.74055
N         63.99364       63.85760       25.89931
C         64.22182       62.70543       26.75875
C         63.69043       61.39731       26.13075
O         63.57744       60.41375       27.11342
C         65.68860       62.58251       27.21999
C         66.12278       63.76508       28.09386
C         67.54599       63.59529       28.53796
O         67.83700       63.50034       29.84895
O         68.44616       63.54681       27.71433
H         64.78359       64.47403       25.65772
H         63.60089       62.85348       27.67128
H         66.36470       62.50930       26.35017
H         65.79694       61.65568       27.82596
H         65.46149       63.81677       28.98611
H         66.03896       64.72155       27.53803
N         64.22794       60.83578       24.86783
C         65.12870       61.63210       24.03474
H         66.16315       61.59094       24.42613
H         65.16327       61.17866       23.02165
H         64.77553       62.66977       23.90163
H         64.62758       59.87911       25.00544
Ca        62.05543       59.04446       26.20685
O         60.14182       61.21306       26.68175
H         59.65120       61.86048       26.11989
H         60.46444       61.75206       27.44610
O         62.50923       56.99863       28.16395
H         62.87514       57.00959       29.08300
H         63.26998       56.72450       27.59306
O         60.47888       59.77089       29.38007
H         61.28376       60.32422       29.54342
H         59.71916       60.37180       29.58517

Ca 1.0



