%chk=apoCaM-CA-Ng.loop2.water4.frame270.chk
%nprocshared=20
%mem=10GB
%nosave
#b3lyp/svp scf=(tight,noincore,xqc) Test 
#IOP(5/87=12) Density=Current Pop=(MK,readradii) iop(6/33=2) iop(6/42=6)

apoCaM-CA-Ng.loop2.water4.frame270 

   -2  1 
C         16.36752       32.56519       21.20689
C         15.38204       32.59322       22.33771
O         14.54708       31.70336       22.42029
H         17.39990       32.50781       21.60755
H         16.18534       31.69090       20.54504
H         16.26021       33.48996       20.59987
N         15.39533       33.62818       23.22587
C         14.40712       33.78927       24.28537
C         13.49713       34.92415       23.86614
O         13.96485       36.03801       23.67215
C         15.09585       34.03020       25.63728
C         14.09719       34.17263       26.75219
O         14.04885       35.30896       27.47279
O         13.33086       33.25880       27.01417
H         16.08774       34.38141       23.08836
H         13.80057       32.86107       24.37933
H         15.72262       34.94644       25.57889
H         15.76055       33.16895       25.86719
N         12.19862       34.64882       23.56575
C         11.34053       35.54367       22.80488
C         11.22257       35.01901       21.36566
O         10.49038       35.59480       20.57436
C          9.97993       35.63724       23.49703
H         11.84921       33.68874       23.71875
H         11.77158       36.56744       22.74901
H          9.31109       36.33136       22.94613
H          9.49937       34.63674       23.54977
H         10.11215       36.02454       24.53050
N         11.96568       33.94141       20.96047
C         12.00293       33.33217       19.64233
C         10.68419       32.67387       19.29473
O         10.15292       32.86579       18.20885
C         12.57645       34.30184       18.58681
C         13.05794       33.59627       17.34359
O         13.72837       34.28806       16.40727
O         12.92966       32.38880       17.20785
H         12.59991       33.48321       21.62470
H         12.73612       32.49604       19.72773
H         13.47800       34.78033       19.02801
H         11.84872       35.10248       18.33413
N         10.11483       31.83992       20.20564
C          8.93379       31.04513       19.94644
C          9.26615       29.73829       19.25607
O          8.39070       29.17300       18.62131
H         10.55331       31.74495       21.13516
H          8.12596       31.63226       19.45707
H          8.52283       30.72928       20.92974
N         10.48466       29.14542       19.44520
C         10.80869       27.78331       19.01978
C         11.27425       26.97911       20.22694
O         11.46581       27.54979       21.28944
C         11.92166       27.81989       17.95791
C         11.43726       28.45863       16.68400
N         10.47076       27.86718       15.94310
O         11.92925       29.51078       16.30964
H         11.21333       29.65608       19.96344
H          9.90969       27.27827       18.60682
H         12.27018       26.79451       17.70890
H         12.78905       28.38527       18.36818
H         10.05814       26.96907       16.23547
H         10.14465       28.29758       15.06537
N         11.44804       25.62538       20.13488
C         11.91208       24.82350       21.26298
C         13.05370       23.90868       20.88478
O         13.36371       23.76669       19.71246
H         11.20497       25.14865       19.25518
H         11.08216       24.18456       21.63074
H         12.24116       25.47174       22.10166
N         13.71659       23.22902       21.86866
C         14.76692       22.24347       21.59530
C         15.93636       22.80011       20.78634
O         16.67866       22.00110       20.22942
C         15.27413       21.56270       22.89625
C         15.97752       22.53615       23.86262
O         14.22408       20.88169       23.54130
H         13.42480       23.40125       22.83988
H         14.29515       21.45775       20.96382
H         16.02678       20.79456       22.61382
H         13.69222       21.53623       24.06417
H         16.33639       21.98515       24.75704
H         16.85387       23.00136       23.37430
H         15.29513       23.34401       24.19956
N         16.15251       24.14000       20.65468
C         17.13037       24.72024       19.73406
C         16.40424       25.61795       18.74715
O         15.19673       25.78255       18.88030
C         18.30373       25.45494       20.45806
C         17.98944       26.80791       21.15967
C         19.05801       24.49364       21.38887
C         17.08203       26.78220       22.39123
H         15.54692       24.77549       21.18182
H         17.60171       23.90891       19.13534
H         19.03135       25.72241       19.66049
H         17.56503       27.52236       20.42242
H         18.96359       27.22914       21.49378
H         19.96354       24.98668       21.80215
H         18.42023       24.16625       22.22953
H         19.38647       23.59321       20.82639
H         17.06105       27.79840       22.83812
H         16.03744       26.54853       22.13320
H         17.46146       26.07862       23.16001
N         17.06387       26.24198       17.72968
C         16.37562       27.11301       16.78513
C         16.58150       26.59671       15.36501
O         16.92049       27.36137       14.47664
C         16.85606       28.55527       17.05185
C         16.05966       29.60627       16.34102
O         14.85566       29.69012       16.51701
O         16.68109       30.51472       15.57328
H         18.08320       26.11763       17.62863
H         15.28066       27.08690       16.97432
H         17.93820       28.64837       16.81046
H         16.73384       28.75797       18.13892
N         16.41634       25.26469       15.10794
C         16.60106       24.61784       13.80544
C         17.96004       24.94485       13.18738
O         18.96610       24.70003       13.84008
C         16.52162       23.07647       13.99459
C         16.85231       22.30939       12.73116
C         16.00824       22.36027       11.61105
C         18.03678       21.55116       12.66216
C         16.35114       21.67752       10.43817
C         18.37656       20.87315       11.48891
C         17.53579       20.93810       10.37627
H         16.17173       24.66058       15.90830
H         15.78404       24.93502       13.12802
H         15.52079       22.77376       14.37129
H         17.26264       22.80242       14.77932
H         15.09168       22.93525       11.64304
H         18.70879       21.49785       13.50998
H         15.70176       21.72610        9.57409
H         19.29565       20.30275       11.44138
H         17.80374       20.41607        9.46669
N         18.08575       25.41950       11.90355
C         19.36921       25.56872       11.23535
C         20.08606       26.84406       11.63885
O         21.23340       27.01719       11.25243
C         18.98291       25.57814        9.75202
C         17.66738       26.33324        9.78280
C         16.98607       25.71655       11.00234
H         20.02856       24.69460       11.43442
H         19.75466       25.97661        9.05931
H         18.74418       24.53292        9.44629
H         17.89982       27.39890       10.00679
H         17.06169       26.29452        8.85246
H         16.25616       26.44100       11.42415
H         16.47974       24.77148       10.73052
N         19.46125       27.80127       12.37670
C         20.10953       29.02960       12.80286
C         21.16104       28.69967       13.83931
O         22.32071       29.02790       13.63249
C         19.06993       30.01764       13.37059
C         18.06169       30.44512       12.28476
C         17.05484       31.41884       12.81517
O         15.86466       31.14995       12.77807
O         17.45695       32.59901       13.32330
H         18.47563       27.66610       12.62684
H         20.58262       29.52982       11.92719
H         19.59703       30.92343       13.74300
H         18.53762       29.54672       14.22194
H         17.52271       29.55946       11.88511
H         18.60397       30.92874       11.44516
N         20.81981       28.02446       14.97450
C         21.76966       27.65525       16.00390
H         22.79923       28.00192       15.77523
H         21.45476       28.10071       16.97040
H         21.78697       26.54980       16.10699
H         19.83877       27.74003       15.11640
Ca        14.78817       33.07061       14.83500
O         13.25387       33.97561       12.52112
H         12.60647       33.24608       12.69139
H         14.04960       33.51847       12.14844
O         13.00267       30.45848       13.64313
H         13.53969       29.71612       14.01873
H         12.89934       31.09551       14.39398
O         16.46909       35.44600       13.95395
H         15.70261       35.44161       13.32700
H         16.07912       35.72442       14.82050
O         17.03451       33.71969       17.00386
H         17.49051       32.91680       17.36139
H         17.73145       34.42312       17.00469

Ca 1.0



