%chk=apoCaM-CA-Ng.loop2.water5.frame1253.chk
%nprocshared=20
%mem=10GB
%nosave
#b3lyp/svp scf=(tight,noincore,xqc) Test 
#IOP(5/87=12) Density=Current Pop=(MK,readradii) iop(6/33=2) iop(6/42=6)

apoCaM-CA-Ng.loop2.water5.frame1253 

   -2  1 
C         42.97355       53.95898      126.58630
C         44.45018       53.93766      126.31211
O         45.10913       53.01166      126.76266
H         42.41704       53.91963      125.62604
H         42.67906       53.07525      127.19274
H         42.70125       54.87652      127.14646
N         45.07610       54.88875      125.56247
C         44.42572       56.04461      124.95060
C         45.03627       57.41816      125.39705
O         46.24290       57.34026      126.09848
C         44.35572       55.89995      123.40205
C         45.45917       55.16333      122.64581
O         45.14052       54.23248      121.92213
O         46.76503       55.49833      122.70119
H         46.08322       54.75834      125.39359
H         43.35880       56.10920      125.25232
H         44.18223       56.89961      122.95224
H         43.43178       55.31501      123.18705
N         44.04676       58.27298      126.08785
C         44.43617       59.67597      126.38516
C         44.78641       60.52825      125.16344
O         45.20749       61.66022      125.35993
C         45.52421       59.76789      127.47348
H         43.74742       57.80245      126.97417
H         43.54764       60.16503      126.84202
H         45.65728       60.82513      127.78851
H         45.21615       59.18982      128.37087
H         46.51049       59.41491      127.12602
N         44.58004       60.10090      123.88297
C         44.91077       60.91443      122.70472
C         44.28416       60.35458      121.41847
O         43.61616       59.33049      121.45985
C         46.44915       61.13315      122.59925
C         47.28699       59.88378      122.64184
O         46.77966       58.78708      122.79071
O         48.62781       59.98531      122.57009
H         44.14050       59.18348      123.74454
H         44.43462       61.91291      122.81994
H         46.78650       61.76066      123.44917
H         46.69169       61.69753      121.67617
N         44.41599       61.02845      120.23506
C         43.71518       60.66211      119.00840
C         44.67239       60.05993      118.00998
O         45.67292       60.68366      117.68628
H         45.01004       61.86957      120.19844
H         43.22897       61.56980      118.59094
H         42.90142       59.93584      119.21989
N         44.44187       58.80320      117.52778
C         45.41636       58.03394      116.75801
C         44.85327       57.50158      115.45052
O         43.70245       57.75492      115.12160
C         45.82445       56.83529      117.63833
C         46.41388       57.31093      118.93088
N         45.78746       57.05451      120.09793
O         47.45659       57.94785      118.92305
H         43.57974       58.31443      117.81738
H         46.31847       58.64148      116.52564
H         46.57326       56.18064      117.15144
H         44.91776       56.21871      117.83509
H         44.89748       56.53651      120.12359
H         46.18820       57.38698      120.97913
N         45.63353       56.67598      114.69130
C         45.18038       55.94544      113.52223
C         46.12334       56.11414      112.34851
O         47.04760       56.91061      112.43667
H         46.59418       56.47549      115.00429
H         44.14621       56.22914      113.22881
H         45.19089       54.87178      113.80258
N         45.97959       55.40108      111.19198
C         44.93410       54.41258      110.94510
C         45.53812       53.08105      110.52058
O         46.30161       53.04907      109.56557
C         43.98559       54.93644      109.84789
C         42.82859       53.95709      109.59422
O         43.45527       56.16877      110.26409
H         46.64339       55.59098      110.42391
H         44.30395       54.25524      111.84307
H         44.57059       55.07254      108.90719
H         43.21171       56.67165      109.44397
H         42.24797       53.79592      110.52861
H         42.14886       54.36602      108.81894
H         43.20585       52.97572      109.23616
N         45.13776       51.92699      111.12859
C         45.48285       50.58863      110.65367
C         44.18700       49.94697      110.16576
O         43.25019       49.90100      110.95219
C         46.09383       49.71875      111.79610
C         47.34160       50.39356      112.41502
C         46.43471       48.31098      111.25679
C         47.93963       49.60534      113.58624
H         44.46971       51.99276      111.91234
H         46.23101       50.64227      109.83796
H         45.33153       49.60773      112.60014
H         47.04828       51.39000      112.80899
H         48.12393       50.54008      111.63932
H         45.53869       47.83299      110.81736
H         47.22199       48.36936      110.47510
H         46.77443       47.63227      112.06345
H         48.34518       48.62773      113.25480
H         48.78197       50.17694      114.02762
H         47.17294       49.43671      114.37250
N         44.01534       49.38221      108.93469
C         45.02701       49.25601      107.89184
C         44.61096       48.14624      106.94161
O         43.52410       48.23110      106.38586
C         45.16879       50.57882      107.10993
C         46.20369       50.46782      106.02115
O         45.88557       50.62165      104.85238
O         47.48492       50.19140      106.33054
H         43.09831       48.93904      108.76550
H         45.99999       48.96970      108.34411
H         45.46339       51.40237      107.78583
H         44.18547       50.84688      106.66204
N         45.42345       47.06853      106.71939
C         45.06615       45.98607      105.80315
C         46.11774       44.88322      105.86227
O         47.28237       45.19234      105.65035
C         44.93079       46.51647      104.34880
C         44.24539       45.51923      103.44160
C         44.91041       44.37578      102.96574
C         42.90491       45.73447      103.06808
C         44.24346       43.46772      102.13566
C         42.24136       44.82118      102.24722
C         42.90988       43.68872      101.77987
H         46.31754       47.01590      107.23176
H         44.07652       45.60223      106.12336
H         45.90361       46.84769      103.92462
H         44.29721       47.42079      104.35462
H         45.94312       44.18840      103.22678
H         42.36488       46.60328      103.42499
H         44.75985       42.59098      101.76793
H         41.20740       44.99274      101.97613
H         42.39329       42.98386      101.14166
N         45.80886       43.56887      106.10166
C         44.46847       43.02023      106.22956
C         43.91991       43.10102      107.64900
O         42.81796       42.61374      107.85624
C         44.67491       41.56128      105.80367
C         46.02730       41.25198      106.41577
C         46.80913       42.51625      106.06960
H         43.74819       43.48008      105.51965
H         43.85195       40.86496      106.07159
H         44.80386       41.53454      104.69620
H         45.89081       41.20402      107.51998
H         46.50810       40.30944      106.07836
H         47.63390       42.67386      106.79824
H         47.21836       42.45922      105.03680
N         44.62211       43.66934      108.67503
C         44.13447       43.70353      110.05296
C         45.09105       42.94381      110.96367
O         46.25176       42.79267      110.60913
C         44.02677       45.16858      110.52365
C         43.00585       45.99890      109.72955
C         41.56850       45.60579      109.95802
O         40.68454       46.21524      109.37820
O         41.23345       44.62290      110.81674
H         45.54762       44.08207      108.49045
H         43.14625       43.21124      110.11733
H         45.02934       45.63033      110.39859
H         43.76709       45.23583      111.59969
H         43.24089       45.94433      108.64517
H         43.10571       47.05186      110.05672
N         44.70246       42.41736      112.16188
C         43.34692       42.46480      112.67027
H         42.65855       41.94099      111.97372
H         43.29568       41.94744      113.65171
H         43.01354       43.51001      112.81630
H         45.40652       41.92614      112.73462
Ca        47.53930       56.54719      124.47995
O         49.15312       55.02646      126.48908
H         48.71557       54.15756      126.30486
H         48.49200       55.52683      127.03056
O         51.15925       57.13950      124.33506
H         51.54781       57.79323      124.96906
H         51.34545       56.25792      124.74534
O         49.13819       58.44528      126.20112
H         48.72237       59.34317      126.18485
H         49.41222       58.31104      127.14282
O         49.47276       56.87385      121.44262
H         48.70840       57.43024      121.15289
H         50.10348       56.90166      120.68027
O         49.64941       54.55571      123.26748
H         50.52801       54.29710      122.89162
H         49.14752       53.70599      123.34284

Ca 1.0



