%chk=apoCaM-CA-Ng.loop4.water5.frame698.chk
%nprocshared=20
%mem=10GB
%nosave
#b3lyp/svp scf=(tight,noincore,xqc) Test 
#IOP(5/87=12) Density=Current Pop=(MK,readradii) iop(6/33=2) iop(6/42=6)

apoCaM-CA-Ng.loop4.water5.frame698 

   -3  1 
C        103.64491      101.68495        3.24667
C        105.06217      101.65021        3.73409
O        105.97540      101.58347        2.92424
H        103.16036      102.62525        3.58601
H        103.60555      101.64311        2.13764
H        103.08721      100.81910        3.66103
N        105.31339      101.71274        5.07116
C        106.64516      101.71668        5.66739
C        107.44053      102.91167        5.16753
O        108.55385      102.76026        4.68694
C        107.36234      100.36736        5.44383
C        106.54711       99.22733        5.98839
O        106.22557       99.18860        7.29589
O        106.16899       98.33436        5.24732
H        104.50992      101.78803        5.71460
H        106.52240      101.85128        6.76593
H        108.34482      100.37633        5.96311
H        107.54870      100.20556        4.36036
N        106.88108      104.14941        5.23764
C        107.53317      105.37167        4.77281
C        108.77022      105.70893        5.60412
O        108.72611      105.53781        6.81390
C        106.54939      106.59133        4.76404
C        105.88763      106.85986        6.14976
C        105.50217      106.39974        3.65071
C        105.04389      108.13339        6.19691
H        105.92140      104.19947        5.60170
H        107.84050      105.20921        3.72031
H        107.14053      107.49251        4.48653
H        106.67621      106.97214        6.92046
H        105.22861      106.02155        6.45194
H        104.86344      107.29792        3.53847
H        106.01351      106.25777        2.67370
H        104.85966      105.51683        3.84707
H        105.66704      109.01750        5.94913
H        104.18089      108.07690        5.50377
H        104.63597      108.26065        7.22244
N        109.88303      106.29983        5.06480
C        110.05527      106.57349        3.63814
C        110.35845      105.29671        2.86472
O        110.22816      105.29943        1.64842
C        111.19902      107.57886        3.39223
C        110.97541      108.87452        4.12300
O        109.98639      109.55202        3.89226
O        111.87292      109.29588        5.03463
H        110.62950      106.59555        5.71409
H        109.12434      107.04388        3.25304
H        111.27495      107.79996        2.30461
H        112.16257      107.13444        3.72539
N        110.82753      104.18423        3.50316
C        111.15954      102.93906        2.83509
C        112.24666      103.13022        1.81089
O        113.29723      103.65452        2.15449
H        110.97958      104.20882        4.52161
H        110.24716      102.50449        2.37445
H        111.53328      102.22003        3.59617
N        112.06602      102.69499        0.53091
C        113.07184      102.84794       -0.51367
C        112.55578      103.62952       -1.71062
O        113.37086      103.94306       -2.56598
C        113.63776      101.47397       -0.94750
C        112.61625      100.51886       -1.51315
O        112.72933      100.11118       -2.65795
O        111.60875      100.05864       -0.74724
H        111.18297      102.21828        0.30037
H        113.93268      103.43080       -0.11865
H        114.11731      100.98602       -0.07258
H        114.43218      101.64614       -1.70855
N        111.24677      103.99739       -1.86181
C        110.79822      104.75761       -3.01791
C        110.94795      104.01267       -4.33432
O        110.78734      104.64848       -5.36550
H        110.54592      103.76695       -1.14451
H        111.39247      105.69591       -3.05907
H        109.72878      105.04061       -2.90173
N        111.21443      102.67050       -4.39134
C        111.38487      101.91720       -5.63410
C        110.14288      101.93440       -6.52054
O        110.22968      101.51658       -7.66628
C        112.67069      102.34177       -6.38116
C        113.91111      102.08551       -5.50280
C        115.22636      102.30542       -6.20384
N        116.38111      102.09306       -5.53041
O        115.26351      102.65908       -7.37332
H        111.28628      102.13502       -3.51666
H        111.53711      100.84422       -5.37977
H        112.62846      103.40661       -6.69524
H        112.76623      101.71149       -7.29250
H        113.89774      101.02973       -5.15531
H        113.87480      102.74690       -4.61889
H        116.36521      101.79110       -4.54440
H        117.29247      102.22469       -5.99301
N        108.92767      102.28521       -6.01273
C        107.67362      102.19964       -6.75382
C        106.78151      101.12489       -6.15040
O        105.63616      101.01916       -6.57695
C        106.94427      103.57701       -6.75931
C        106.57472      104.07626       -5.34869
C        107.76997      104.63727       -7.49657
H        108.85990      102.55398       -5.02290
H        107.84611      101.91035       -7.81399
H        105.99480      103.45627       -7.32822
H        107.47658      104.28077       -4.73610
H        105.99344      105.01958       -5.42138
H        105.94271      103.33187       -4.81996
H        107.97981      104.30359       -8.53502
H        107.20467      105.59235       -7.54894
H        108.73191      104.82337       -6.97840
N        107.22112      100.27720       -5.17200
C        106.32677       99.34550       -4.49742
C        107.06334       98.27150       -3.70256
O        108.28573       98.28344       -3.61440
C        105.36890      100.15543       -3.57700
C        106.07986      100.96133       -2.50179
N        105.36672      101.76409       -1.67930
O        107.29422      100.90449       -2.37194
H        108.21028      100.30343       -4.88482
H        105.74389       98.79416       -5.26951
H        104.63628       99.48020       -3.08877
H        104.78820      100.86732       -4.19943
H        104.34410      101.84032       -1.77433
H        105.84150      102.31988       -0.95166
N        106.34352       97.27928       -3.11484
C        106.90994       96.20312       -2.30754
C        105.80581       95.23347       -1.93149
O        104.79686       95.66231       -1.38569
C        107.60274       96.75450       -1.03715
C        107.96917       95.64113       -0.07640
C        107.46035       95.65758        1.23290
C        108.77912       94.56428       -0.48198
C        107.74332       94.61399        2.11517
C        109.04757       93.51211        0.39958
C        108.52763       93.53038        1.69790
O        108.78215       92.50232        2.53198
H        105.32082       97.28919       -3.26334
H        107.66812       95.65264       -2.90676
H        106.91512       97.46803       -0.53215
H        108.52003       97.31185       -1.31943
H        106.83526       96.47433        1.57152
H        109.18153       94.52291       -1.48586
H        107.34006       94.64468        3.11905
H        109.65268       92.67683        0.06973
H        108.42325       92.46913        3.43039
N        105.94924       93.90016       -2.18137
C        104.90641       92.92369       -1.91579
C        105.35993       91.95943       -0.82216
O        106.04843       91.00079       -1.14552
C        104.58119       92.15536       -3.21657
C        104.13218       93.08362       -4.35483
C        103.88957       92.30245       -5.61445
O        104.80002       91.67601       -6.13459
O        102.67096       92.30198       -6.18624
H        106.83492       93.55778       -2.58637
H        103.97593       93.42856       -1.61081
H        103.77997       91.41030       -3.01425
H        105.49290       91.60958       -3.54928
H        104.91766       93.84052       -4.56797
H        103.20283       93.61320       -4.05400
N        105.07850       92.12983        0.50688
C        104.38370       93.27614        1.08698
C        102.94270       93.38207        0.62496
O        102.30242       92.36651        0.39075
C        104.44806       93.22702        2.63483
C        103.86132       94.50230        3.26105
C        104.07214       94.59424        4.73918
O        103.59175       93.76416        5.49399
O        104.73643       95.65715        5.23256
H        105.45181       91.41924        1.15712
H        104.93773       94.18748        0.77665
H        105.51411       93.14706        2.93206
H        103.91767       92.32951        3.02356
H        102.76925       94.55205        3.06952
H        104.34729       95.38743        2.79582
N        102.37531       94.61511        0.48636
C        101.01046       94.83700        0.06164
H        100.45911       95.36551        0.86819
H        101.01260       95.47604       -0.84601
H        100.48025       93.89074       -0.17000
H        102.93598       95.45252        0.70592
Ca       104.78490       96.17302        7.42422
O        104.43377       93.65732        8.86501
H        104.36291       93.10670        8.04557
H        105.39500       93.88861        8.92470
O        101.71244       96.02614        7.68181
H        101.38639       96.87221        8.07970
H        101.58264       95.34972        8.39299
O        104.06908       96.99535       10.23522
H        104.19233       96.04944       10.50074
H        104.91704       97.43745       10.49195
O        107.69928       96.36897        7.57709
H        107.99686       95.51588        7.98141
H        107.87490       97.05028        8.27369
O        102.49891       97.54054        4.98213
H        101.96347       96.73285        4.77767
H        102.55762       98.02391        4.12032

Ca 1.0



