%chk=apoCaM-CA-Ng.loop1.water3.frame1460.chk
%nprocshared=20
%mem=10GB
%nosave
#b3lyp/svp scf=(tight,noincore,xqc) Test 
#IOP(5/87=12) Density=Current Pop=(MK,readradii) iop(6/33=2) iop(6/42=6)

apoCaM-CA-Ng.loop1.water3.frame1460 

   0  1 
C         50.45960       77.43336       75.64770
C         50.56594       78.46430       74.56668
O         51.39443       78.30867       73.68005
H         49.43693       77.00503       75.65817
H         51.19387       76.61534       75.48263
H         50.67377       77.90632       76.62964
N         49.76794       79.57085       74.59711
C         49.87628       80.65042       73.62184
C         50.40335       81.89293       74.30427
O         49.84038       82.97213       74.17689
C         48.55166       80.86245       72.85683
C         47.37251       81.29706       73.69552
O         47.48210       81.50344       75.02272
O         46.29477       81.48129       73.15418
H         49.10046       79.66827       75.37585
H         50.63999       80.39035       72.85787
H         48.29026       79.90995       72.34800
H         48.71899       81.63366       72.07278
N         51.53728       81.78792       75.04509
C         52.21169       82.92268       75.65385
C         52.65979       83.87377       74.55320
O         52.27515       85.03243       74.62502
C         53.36224       82.45606       76.58615
C         52.78625       81.61296       77.74405
C         53.86219       81.00253       78.64585
C         53.19681       80.12760       79.72277
N         54.19028       79.45940       80.56001
H         51.95438       80.85139       75.15052
H         51.49611       83.46464       76.31451
H         53.88342       83.34061       77.01403
H         54.11372       81.85938       76.03500
H         52.19664       80.76800       77.33358
H         52.10347       82.24679       78.35219
H         54.46609       81.80442       79.12330
H         54.53223       80.36625       78.02692
H         52.56588       79.35198       79.23184
H         52.53732       80.75794       80.36042
H         53.69446       78.87151       81.26910
H         54.79278       78.83828       79.97237
H         54.78034       80.16616       81.05471
N         53.39131       83.50236       73.45680
C         53.92058       82.16750       73.16801
C         53.26977       81.54158       71.93815
O         52.46308       82.17422       71.27098
C         55.45398       82.23376       73.06862
C         55.92174       83.31949       72.14750
O         55.60911       83.31950       70.96893
O         56.66445       84.32562       72.64669
H         53.57118       84.23638       72.75333
H         53.69992       81.45985       73.97381
H         55.87646       81.25558       72.75612
H         55.85283       82.46160       74.08118
N         53.52999       80.23113       71.65177
C         52.87181       79.45632       70.60865
C         53.22942       79.87341       69.20289
O         53.96079       80.82728       69.02350
H         54.18019       79.71679       72.26510
H         51.77028       79.49072       70.74882
H         53.19679       78.39775       70.71548
N         52.77104       79.13030       68.15332
C         53.08878       79.36592       66.73020
C         52.74185       78.10312       65.89917
O         52.11950       77.20393       66.44869
C         52.26926       80.57206       66.19676
C         52.45209       81.89467       66.91314
O         51.51167       82.34691       67.54679
O         53.54611       82.67681       66.73966
H         52.21427       78.30561       68.42044
H         54.17867       79.51989       66.63995
H         51.19899       80.27904       66.29900
H         52.44758       80.75099       65.12228
N         53.08931       77.88409       64.59137
C         53.88090       78.71521       63.69888
C         55.29944       78.87819       64.17140
O         55.88444       77.92492       64.66577
H         52.77367       76.99126       64.17757
H         53.39293       79.68495       63.48534
H         53.94435       78.18636       62.72233
N         55.93973       80.06508       63.99193
C         57.28684       80.32519       64.49077
C         57.22762       80.33060       66.00045
O         56.24986       80.81804       66.51777
C         57.80053       81.70435       63.99291
C         57.92689       81.77171       62.46354
O         59.04462       82.01176       64.57434
H         55.43251       80.82113       63.50675
H         57.99813       79.55195       64.12361
H         57.07689       82.48769       64.30655
H         59.68732       81.30217       64.31043
H         58.28951       82.77831       62.16451
H         58.65150       81.01210       62.10035
H         56.95080       81.59791       61.96697
N         58.21552       79.81000       66.77246
C         58.21568       79.81675       68.23884
C         58.31739       81.29016       68.78517
O         57.09861       81.75379       69.33029
C         57.04429       78.97267       68.84818
C         56.99430       77.56537       68.19615
C         57.18779       78.86242       70.38208
C         55.81304       76.70652       68.65496
H         59.02837       79.38850       66.29742
H         59.15376       79.28806       68.52024
H         56.08549       79.47902       68.62424
H         57.94197       77.01918       68.39241
H         56.88493       77.68108       67.09866
H         56.32502       78.32950       70.82865
H         58.12333       78.32578       70.64648
H         57.20825       79.85672       70.86838
H         54.85411       77.22924       68.45687
H         55.81520       75.74993       68.09118
H         55.88357       76.45645       69.73210
N         59.34998       81.37068       69.83637
C         59.63216       82.73893       70.32218
C         60.81746       83.36928       69.58445
O         61.79126       83.76740       70.20781
C         59.81884       82.69187       71.86284
C         60.96239       81.77512       72.32509
O         58.62906       82.22771       72.44173
H         60.24273       80.90927       69.54260
H         58.75653       83.40380       70.13996
H         60.01529       83.73521       72.20797
H         58.61615       82.55123       73.38072
H         60.77159       80.72704       72.01311
H         61.94433       82.09347       71.92775
H         61.02595       81.80068       73.43366
N         60.77625       83.51133       68.23285
C         61.84463       84.10316       67.43808
C         61.28693       85.37366       66.82522
O         60.89313       85.37229       65.66779
C         62.33736       83.06204       66.40359
C         63.53793       83.58252       65.60264
O         62.72337       81.89551       67.08585
H         59.93810       83.19064       67.73072
H         62.72312       84.37427       68.06582
H         61.49546       82.82650       65.71086
H         62.66007       81.14520       66.43823
H         63.27890       84.50145       65.03854
H         64.38620       83.80721       66.28499
H         63.86769       82.80996       64.87607
N         61.16659       86.48827       67.60664
C         60.46568       87.71588       67.23797
C         58.98010       87.45365       67.18731
O         58.54685       86.58511       66.44671
C         60.93436       88.37185       65.92761
C         62.41365       88.76524       65.94378
C         62.72136       89.65384       64.73145
C         64.19007       90.08493       64.69952
N         64.42790       91.01936       63.59912
H         61.55811       86.45202       68.56078
H         60.64506       88.46120       68.04570
H         60.32953       89.30031       65.81475
H         60.72521       87.73401       65.04350
H         63.04441       87.84948       65.93710
H         62.63273       89.34719       66.86591
H         62.08554       90.56531       64.79531
H         62.47497       89.11515       63.79013
H         64.83500       89.18693       64.57582
H         64.45563       90.58270       65.65857
H         63.85778       91.88587       63.73904
H         65.43922       91.28276       63.58371
H         64.17499       90.57785       62.68541
N         58.12801       88.18788       67.95263
C         56.70761       87.89667       68.02799
C         56.47154       86.70790       68.94601
O         55.88473       85.74457       68.47662
C         55.88389       89.13728       68.42351
C         55.99941       90.23226       67.35195
C         55.14736       91.41628       67.69965
O         55.37981       92.10802       68.83135
O         54.24559       91.76359       66.95382
H         58.50160       88.97202       68.50888
H         56.33189       87.62869       67.01342
H         56.20181       89.54969       69.39669
H         54.81482       88.83726       68.50145
H         55.67224       89.81968       66.37114
H         57.05399       90.56738       67.25564
N         56.88938       86.63477       70.24447
C         57.65275       87.63564       70.96120
H         58.63169       87.80613       70.47178
H         57.08833       88.57792       71.06440
H         57.86243       87.27433       71.99103
H         56.66839       85.77539       70.75852
Ca        55.48941       82.67413       67.94703
O         52.93840       85.52623       68.57552
H         52.74340       85.99157       67.72371
H         52.65133       84.59277       68.41893
O         54.78106       85.05739       65.56745
H         54.75351       85.96332       65.96475
H         55.32584       85.16173       64.74764
O         57.69258       84.02807       66.75477
H         57.86265       83.05911       66.67172
H         57.43027       84.30824       65.84370

Ca 1.0



