%chk=apoCaM-CA-Ng.loop2.water3.frame484.chk
%nprocshared=20
%mem=10GB
%nosave
#b3lyp/svp scf=(tight,noincore,xqc) Test 
#IOP(5/87=12) Density=Current Pop=(MK,readradii) iop(6/33=2) iop(6/42=6)

apoCaM-CA-Ng.loop2.water3.frame484 

   -2  1 
C         70.70920       69.09005       87.80663
C         71.98824       69.83772       88.04312
O         72.44994       70.49569       87.12196
H         69.90619       69.81079       87.54265
H         70.84415       68.37797       86.96557
H         70.39435       68.52134       88.70312
N         72.62946       69.77839       89.24827
C         73.87119       70.50047       89.51258
C         74.42994       70.13687       90.87825
O         73.78065       70.40553       91.88060
C         73.63688       72.03380       89.47061
C         74.89156       72.85551       89.64904
O         75.98906       72.33139       89.76272
O         74.79866       74.19788       89.67221
H         72.23101       69.18024       89.98852
H         74.60690       70.21581       88.72738
H         72.91607       72.30669       90.27286
H         73.19195       72.33824       88.50416
N         75.65557       69.55014       90.98393
C         76.31382       69.29430       92.25822
C         76.37104       67.81233       92.53705
O         75.87530       67.02860       91.74040
C         77.70797       69.93251       92.23536
H         76.15866       69.28463       90.12266
H         75.74148       69.74798       93.09681
H         78.22982       69.80145       93.20549
H         78.32996       69.48075       91.43313
H         77.61706       71.02326       92.04666
N         76.93842       67.35650       93.68729
C         76.88534       65.96464       94.10187
C         78.25266       65.35417       93.95481
O         78.85896       64.93504       94.93126
C         76.28644       65.88265       95.52518
C         74.93826       66.55126       95.52008
O         74.71934       67.53501       96.20799
O         74.00799       66.10366       94.66324
H         77.39515       68.02457       94.32612
H         76.22072       65.36961       93.43437
H         76.95462       66.38964       96.25487
H         76.17424       64.81733       95.82533
N         78.76792       65.22524       92.69858
C         80.02925       64.57835       92.40649
C         79.74829       63.28210       91.69979
O         80.20280       63.08152       90.58242
H         78.20577       65.54431       91.89385
H         80.59088       64.34019       93.33403
H         80.65762       65.25659       91.78902
N         78.99581       62.33883       92.33273
C         78.69725       61.02376       91.77438
C         77.83857       61.12177       90.52262
O         77.42579       62.21094       90.14696
C         77.96966       60.15986       92.83061
C         78.78166       60.03152       94.09701
N         78.30364       60.50288       95.27302
O         79.88383       59.50518       94.05845
H         78.65211       62.56273       93.27927
H         79.65986       60.52983       91.51305
H         77.78045       59.13811       92.43980
H         76.98547       60.62645       93.05703
H         77.37935       60.95586       95.32573
H         78.86242       60.42277       96.13523
N         77.53781       59.99336       89.82118
C         76.74780       59.98727       88.60213
C         75.53860       59.08914       88.71838
O         75.27402       58.53734       89.77851
H         77.91357       59.08853       90.14451
H         77.39363       59.59040       87.78879
H         76.41341       61.00445       88.30899
N         74.79220       58.84821       87.60554
C         73.72679       57.84935       87.56536
C         72.43354       58.27915       88.26655
O         71.61772       57.40633       88.52649
C         73.47486       57.35724       86.10939
C         72.98119       58.44555       85.13857
O         74.63399       56.74263       85.59737
H         75.10665       59.29354       86.73213
H         74.10351       56.95529       88.11362
H         72.68844       56.57242       86.14282
H         75.29480       57.44964       85.37603
H         73.70899       59.27445       85.02902
H         72.81950       58.00246       84.13344
H         72.02733       58.87041       85.48122
N         72.14948       59.58310       88.56646
C         70.91645       60.01166       89.25102
C         71.24982       60.89427       90.45398
O         72.42503       61.10844       90.71965
C         69.94938       60.73489       88.25916
C         70.57933       62.00211       87.62811
C         69.44034       59.74120       87.20157
C         69.57475       62.83236       86.82534
H         72.81444       60.31158       88.26770
H         70.36055       59.13532       89.65075
H         69.04808       61.04809       88.82323
H         71.43359       61.72747       86.97308
H         70.95840       62.65983       88.43908
H         68.97976       58.85895       87.69539
H         68.66205       60.19238       86.55572
H         70.26408       59.38987       86.56379
H         70.07180       63.74910       86.44527
H         69.18616       62.27261       85.95146
H         68.72557       63.13605       87.47489
N         70.25760       61.48554       91.19749
C         70.53639       62.43015       92.27442
C         69.76420       62.12086       93.56661
O         69.79764       62.94357       94.47192
C         70.23253       63.87317       91.78290
C         70.88414       64.91078       92.67363
O         70.72972       66.23072       92.47258
O         71.62130       64.56301       93.58418
H         69.27170       61.34179       90.93983
H         71.62201       62.40369       92.50923
H         69.13421       64.02906       91.71235
H         70.67269       64.02191       90.77233
N         69.08177       60.95744       93.76912
C         68.40034       60.70090       95.03708
C         67.13601       61.54091       95.14853
O         66.29313       61.42014       94.26964
C         68.06780       59.20297       95.20985
C         67.53191       58.95182       96.60634
C         68.38865       58.47108       97.61209
C         66.19385       59.24476       96.93293
C         67.92053       58.30301       98.91893
C         65.72893       59.06915       98.23925
C         66.59275       58.60332       99.23266
H         69.10875       60.21672       93.05284
H         69.11522       60.91983       95.85967
H         69.02760       58.65362       95.08886
H         67.36845       58.81513       94.43742
H         69.42586       58.25172       97.39208
H         65.50986       59.61475       96.18062
H         68.59087       57.94904       99.69124
H         64.70042       59.30262       98.48298
H         66.23419       58.47800      100.24612
N         66.87577       62.34842       96.22627
C         65.59569       63.00956       96.42334
C         65.44192       64.25852       95.57573
O         64.32684       64.75139       95.47503
C         65.59289       63.32189       97.92410
C         67.05719       63.62121       98.18237
C         67.74835       62.52666       97.37070
H         64.75275       62.31646       96.20236
H         64.87050       64.10106       98.24978
H         65.36302       62.38090       98.47543
H         67.28160       64.60520       97.71297
H         67.36333       63.66303       99.24917
H         68.77045       62.86365       97.09618
H         67.79237       61.56866       97.93299
N         66.50832       64.85335       94.96917
C         66.37288       66.05491       94.15370
C         65.86668       65.73098       92.75423
O         65.64260       66.66283       91.99314
C         67.72371       66.79245       94.06765
C         68.16629       67.30805       95.44765
C         69.49053       68.00684       95.37842
O         70.52092       67.56560       96.12496
O         69.63545       68.98832       94.66714
H         67.45263       64.47392       95.13073
H         65.65148       66.75146       94.63857
H         67.62811       67.66822       93.38811
H         68.48429       66.10224       93.64963
H         68.24847       66.46510       96.16567
H         67.40820       68.02378       95.83317
N         65.67104       64.44985       92.32768
C         65.20559       64.15080       90.99147
H         64.20637       64.60641       90.82610
H         65.92491       64.54677       90.24331
H         65.12313       63.05119       90.85651
H         65.86357       63.65327       92.94871
Ca        72.24130       67.21881       93.81407
O         72.61210       70.12880       95.13810
H         71.98253       70.87230       94.96090
H         72.87731       70.24814       96.08457
O         69.92739       69.00140       91.54509
H         69.44589       69.69989       91.03535
H         69.83175       68.18514       90.99356
O         73.18466       66.54621       90.76533
H         73.47292       66.30968       91.68157
H         72.93624       65.67795       90.36151

Ca 1.0



