%chk=apoCaM-CA-Ng.loop1.water3.frame465.chk
%nprocshared=20
%mem=10GB
%nosave
#b3lyp/svp scf=(tight,noincore,xqc) Test 
#IOP(5/87=12) Density=Current Pop=(MK,readradii) iop(6/33=2) iop(6/42=6)

apoCaM-CA-Ng.loop1.water3.frame465 

   0  1 
C         52.29394       60.75446       67.14719
C         50.86358       61.21657       67.11724
O         49.96773       60.38549       67.15044
H         53.00015       61.61189       67.10699
H         52.48727       60.18721       68.08099
H         52.49293       60.10126       66.27223
N         50.57549       62.54525       67.05554
C         49.21619       63.08411       67.02224
C         48.51927       62.85362       65.67544
O         47.43470       63.37957       65.50253
C         49.24705       64.61139       67.30125
C         49.77146       64.95113       68.67471
O         48.97291       65.57897       69.55943
O         50.91987       64.68529       68.99114
H         51.36671       63.20685       67.06182
H         48.61105       62.63068       67.83678
H         48.20919       65.00813       67.24691
H         49.85450       65.13397       66.53037
N         49.06275       62.12888       64.65916
C         48.50862       62.11251       63.30618
C         48.04619       60.71887       62.92060
O         48.80316       59.78806       63.16175
C         49.62222       62.56162       62.34110
C         50.14811       63.96355       62.68369
C         51.31264       64.34146       61.76663
C         51.88947       65.70895       62.14950
N         53.03254       66.04496       61.30255
H         49.94960       61.62761       64.79831
H         47.67470       62.82894       63.20405
H         49.24565       62.56063       61.29786
H         50.46473       61.83667       62.40272
H         50.51907       63.97667       63.73178
H         49.32614       64.70692       62.58844
H         50.96611       64.36027       60.71024
H         52.11364       63.57599       61.86786
H         52.22026       65.68698       63.21247
H         51.10389       66.48949       62.04207
H         53.78571       65.32774       61.41701
H         52.73688       66.08910       60.30047
H         53.40864       66.97716       61.58938
N         46.88398       60.44540       62.24413
C         45.87030       61.38489       61.75541
C         46.44293       62.50990       60.90374
O         46.24769       63.67094       61.23915
C         44.93791       61.90057       62.87045
C         44.07775       60.83135       63.46199
O         43.29972       61.11651       64.35909
O         44.16465       59.55645       63.03911
H         46.72955       59.45886       61.98145
H         45.19611       60.82501       61.07896
H         44.22534       62.62607       62.43364
H         45.52166       62.38535       63.67475
N         47.10565       62.27843       59.73855
C         47.43991       60.95012       59.24753
C         48.08792       61.04129       57.87837
O         48.93626       61.90674       57.71090
H         47.38442       63.10529       59.18654
H         46.51908       60.34345       59.22086
H         48.16587       60.49244       59.95073
N         47.78534       60.22474       56.82401
C         46.97020       59.01072       56.86430
C         45.71486       59.15541       56.01975
O         45.81009       59.46919       54.84221
C         47.82803       57.78700       56.45276
C         48.45068       57.78351       55.07316
O         48.29039       58.69891       54.28306
O         49.21566       56.73700       54.71061
H         48.23796       60.45549       55.92781
H         46.65459       58.77335       57.89510
H         47.20084       56.87424       56.54445
H         48.66056       57.70097       57.18522
N         44.48678       58.94029       56.57856
C         43.23267       59.10051       55.85699
C         42.44027       60.18441       56.52899
O         42.24752       61.23589       55.93605
H         44.43228       58.66758       57.57172
H         42.66129       58.14763       55.85763
H         43.41638       59.38439       54.79819
N         41.97893       60.01127       57.79910
C         41.43414       61.11325       58.58157
C         42.59361       62.03503       58.90624
O         43.57120       61.56077       59.46199
C         40.77349       60.61611       59.88880
C         39.56887       59.71152       59.59704
O         40.33341       61.73021       60.62345
H         42.09570       59.08880       58.24607
H         40.64490       61.64226       58.00045
H         41.52739       60.04738       60.48065
H         40.27795       61.44973       61.57380
H         38.80513       60.26333       59.00731
H         39.87331       58.80707       59.03121
H         39.10507       59.38222       60.55074
N         42.56975       63.35120       58.56854
C         43.70381       64.25139       58.77927
C         43.41769       65.32197       59.83263
O         44.27082       66.17408       60.03885
C         44.18849       64.82767       57.40903
C         43.10787       65.54647       56.55499
C         44.79929       63.69321       56.56360
C         42.48070       66.77066       57.21523
H         41.71429       63.72881       58.13574
H         44.57106       63.70225       59.19903
H         45.01544       65.54481       57.60733
H         42.30122       64.84030       56.26346
H         43.58926       65.89653       55.61534
H         45.21719       64.09301       55.61507
H         45.62522       63.19294       57.11296
H         44.03676       62.93191       56.31127
H         43.26757       67.50208       57.49531
H         41.78308       67.25359       56.49909
H         41.88907       66.48751       58.10641
N         42.26484       65.32595       60.56631
C         41.93167       66.35296       61.56166
C         42.85109       66.39551       62.79550
O         42.63960       67.26434       63.62929
C         40.45699       66.18657       62.02331
C         40.21854       64.89762       62.83089
O         39.62036       66.20214       60.89450
H         41.56553       64.59761       60.37115
H         42.00155       67.33932       61.05065
H         40.20548       67.05763       62.67239
H         38.69660       66.36456       61.21938
H         39.15441       64.84127       63.14130
H         40.45729       63.99141       62.24011
H         40.83614       64.89119       63.75054
N         43.85982       65.49635       62.99600
C         44.74632       65.44223       64.16615
C         43.99701       65.04027       65.44311
O         42.77556       65.06081       65.46960
C         45.57566       66.74816       64.33600
C         46.37143       67.07643       63.06659
O         46.47807       66.60911       65.40310
H         44.02648       64.78704       62.27646
H         45.46780       64.62203       63.97216
H         44.87951       67.58914       64.55279
H         46.70459       67.52407       65.71667
H         47.08149       66.25480       62.83132
H         45.69364       67.23014       62.20197
H         46.95068       68.01257       63.21721
N         44.69579       64.59204       66.52920
C         44.10798       64.18054       67.79991
C         44.27304       62.68170       68.07486
O         43.81554       62.25417       69.12670
C         44.81168       64.95548       68.94285
C         44.68558       66.48685       68.86438
C         43.25436       67.02335       69.05168
C         42.59280       66.65512       70.39684
N         43.34694       67.15257       71.55038
H         45.71490       64.53787       66.46510
H         43.01617       64.38455       67.81364
H         45.89617       64.70551       68.90613
H         44.44255       64.61422       69.93216
H         45.07980       66.84027       67.88805
H         45.33737       66.92974       69.64660
H         42.61093       66.65252       68.22672
H         43.29133       68.13140       68.97087
H         42.46252       65.55520       70.48162
H         41.57619       67.10578       70.41233
H         44.27361       66.67547       71.62177
H         43.48105       68.18714       71.47793
H         42.81037       66.94285       72.42301
N         44.89279       61.81412       67.21519
C         45.06982       60.39498       67.54338
C         45.94742       60.24450       68.76650
O         47.08749       60.68654       68.74380
C         45.68599       59.61156       66.36273
C         45.99849       58.12516       66.65598
C         44.84526       57.30406       67.19731
O         44.94699       56.79257       68.30071
O         43.72897       57.07040       66.47472
H         45.24498       62.16044       66.31166
H         44.06888       59.94854       67.73613
H         46.63201       60.09900       66.03635
H         44.98453       59.66309       65.52708
H         46.82915       58.09141       67.39375
H         46.37150       57.64956       65.72309
N         45.47479       59.59092       69.86351
C         46.26240       59.35445       71.05396
H         47.28695       59.77402       70.97436
H         45.75550       59.81539       71.92611
H         46.34572       58.25972       71.22059
H         44.51238       59.22066       69.85416
Ca        43.43163       58.01661       64.47196
O         43.40149       57.98967       60.54372
H         43.69537       57.49801       59.73673
H         43.71947       58.91514       60.39562
O         40.62859       58.38715       62.97515
H         40.31220       58.09264       63.86604
H         40.49058       59.36725       62.97576
O         41.57942       55.31801       62.90187
H         41.30628       54.98336       62.01081
H         40.87372       54.99303       63.51589

Ca 1.0



