%chk=apoCaM-CA-Ng.loop1.water4.frame708.chk
%nprocshared=20
%mem=10GB
%nosave
#b3lyp/svp scf=(tight,noincore,xqc) Test 
#IOP(5/87=12) Density=Current Pop=(MK,readradii) iop(6/33=2) iop(6/42=6)

apoCaM-CA-Ng.loop1.water4.frame708 

   0  1 
C        100.38973       25.86343       -9.05870
C        101.74571       25.40492       -9.52514
O        101.88598       25.02968      -10.67959
H         99.65228       25.04269       -9.17325
H        100.40722       26.16575       -7.98872
H        100.06195       26.73922       -9.65692
N        102.80142       25.42918       -8.66911
C        104.16206       25.04136       -9.03282
C        104.29144       23.57343       -9.45109
O        103.98523       22.69231       -8.66358
C        105.13398       25.32545       -7.86271
C        104.79807       24.63776       -6.55458
O        103.61214       24.01949       -6.34810
O        105.63195       24.62884       -5.66383
H        102.62932       25.78972       -7.71852
H        104.49155       25.67980       -9.88216
H        105.19836       26.41760       -7.67082
H        106.14143       24.98485       -8.19243
N        104.78029       23.23739      -10.68151
C        105.01768       21.85102      -11.08165
C        106.23693       21.26123      -10.37663
O        107.34406       21.72583      -10.61051
C        105.19410       21.75000      -12.61753
C        105.52246       20.30865      -13.07003
C        105.46596       20.09945      -14.59046
C        104.02265       20.15215      -15.12042
N        103.96552       19.79769      -16.53690
H        104.97916       23.99071      -11.35770
H        104.10875       21.25363      -10.84228
H        106.00649       22.42334      -12.97236
H        104.24122       22.09537      -13.06657
H        104.82759       19.58359      -12.59425
H        106.55269       20.06454      -12.72814
H        105.86392       19.08315      -14.79975
H        106.11370       20.83623      -15.11469
H        103.59221       21.16569      -14.98238
H        103.40122       19.42663      -14.54851
H        104.52374       20.47701      -17.10211
H        104.33297       18.82846      -16.67903
H        102.96883       19.82636      -16.85243
N        106.09876       20.18019       -9.55481
C        107.21825       19.38522       -9.03361
C        107.03618       17.92371       -9.43209
O        105.95363       17.55900       -9.87113
C        107.39541       19.54013       -7.49993
C        106.11716       19.69058       -6.74058
O        105.46636       20.84689       -6.91288
O        105.76494       18.89075       -5.88946
H        105.14257       19.85560       -9.34170
H        108.16288       19.71213       -9.51947
H        107.95292       20.48405       -7.31288
H        108.00015       18.71737       -7.07123
N        108.05518       17.01403       -9.40270
C        109.43022       17.27308       -8.99847
C        110.33015       17.35508      -10.20248
O        109.83820       17.44405      -11.31463
H        107.86118       16.06691       -9.76519
H        109.74900       16.45585       -8.31643
H        109.56703       18.22967       -8.46456
N        111.67993       17.39385      -10.04247
C        112.61249       17.57747      -11.15098
C        112.50819       16.45178      -12.17140
O        112.65415       15.29332      -11.80484
C        114.05383       17.67146      -10.60889
C        115.03935       18.00972      -11.69360
O        116.05551       17.17112      -11.97009
O        114.92915       19.05176      -12.32061
H        112.05320       17.32311       -9.08245
H        112.37884       18.55078      -11.63727
H        114.33801       16.71113      -10.12430
H        114.10477       18.47427       -9.84152
N        112.30946       16.73693      -13.49274
C        112.28319       15.71719      -14.53154
C        111.03980       14.84836      -14.52246
O        110.98161       13.92591      -15.32082
H        112.24762       17.72351      -13.78717
H        113.19415       15.08723      -14.43842
H        112.31624       16.21124      -15.52740
N        109.98808       15.10894      -13.69554
C        108.74859       14.34024      -13.67971
C        108.48559       13.78393      -12.28767
O        109.25590       14.03465      -11.37184
C        107.56974       15.23691      -14.16348
C        107.28018       16.43653      -13.25066
O        107.83709       15.71633      -15.45595
H        110.04449       15.91174      -13.06826
H        108.81567       13.47707      -14.37639
H        106.63018       14.63939      -14.18592
H        107.60611       14.98728      -16.08892
H        107.04669       16.10230      -12.21842
H        108.13518       17.14038      -13.22703
H        106.39964       16.99201      -13.63499
N        107.36473       13.04258      -12.05921
C        106.96218       12.60327      -10.72537
C        107.77276       11.39500      -10.26491
O        107.65654       11.04157       -9.09825
C        105.40784       12.37867      -10.69991
C        104.70028       13.72237      -11.05677
C        104.90029       11.85204       -9.34064
C        103.17703       13.63539      -11.15580
H        106.73211       12.85952      -12.85047
H        107.17179       13.43052      -10.00994
H        105.14690       11.61637      -11.46804
H        105.04923       14.08076      -12.04680
H        104.96563       14.49969      -10.30691
H        105.31647       10.85189       -9.11423
H        105.15422       12.56003       -8.52372
H        103.80549       11.68924       -9.35534
H        102.71630       13.40300      -10.17552
H        102.77782       14.62004      -11.47909
H        102.88225       12.86854      -11.90252
N        108.62611       10.71838      -11.08996
C        109.36489        9.53725      -10.65160
C        108.97898        8.32015      -11.46861
O        108.36294        8.45151      -12.52012
C        110.89226        9.79033      -10.65194
C        111.43888       10.23902      -12.01447
O        111.18492       10.77543       -9.69487
H        108.74057       11.02161      -12.06840
H        109.08530        9.28199       -9.60587
H        111.38919        8.83457      -10.35992
H        112.13164       10.64458       -9.42436
H        111.21422        9.48895      -12.80021
H        111.01024       11.22081      -12.30806
H        112.54090       10.36301      -11.94914
N        109.26709        7.07950      -10.98750
C        108.88199        5.84757      -11.65993
C        108.61016        4.75145      -10.63124
O        107.50687        4.22423      -10.62233
C        109.94467        5.48408      -12.72792
C        109.57219        4.24112      -13.53938
O        111.20147        5.28513      -12.13007
H        109.72835        7.01487      -10.06645
H        107.92123        6.01119      -12.20227
H        109.98958        6.33282      -13.45474
H        111.81355        5.98756      -12.47414
H        110.34030        4.06461      -14.32350
H        109.52227        3.34350      -12.88810
H        108.59121        4.38498      -14.04032
N        109.56309        4.36394       -9.73221
C        109.37714        3.28526       -8.76386
C        109.62932        3.78574       -7.34570
O        110.67386        4.37800       -7.11059
C        110.36871        2.16588       -9.12071
C        110.14284        0.88488       -8.30476
C        111.16975       -0.18086       -8.71473
C        110.99194       -1.52138       -7.98530
N        109.74310       -2.19298       -8.35215
H        110.48479        4.82414       -9.75767
H        108.35324        2.85632       -8.83668
H        111.41049        2.53361       -8.98773
H        110.22747        1.90782      -10.19426
H        109.11100        0.52732       -8.50534
H        110.24539        1.09181       -7.21721
H        112.18321        0.21036       -8.47654
H        111.11721       -0.36058       -9.81099
H        111.03578       -1.36925       -6.88435
H        111.84193       -2.17814       -8.27529
H        108.91479       -1.65109       -8.02009
H        109.69427       -2.32062       -9.38948
H        109.71998       -3.13506       -7.89954
N        108.74924        3.52470       -6.33077
C        109.01017        3.93494       -4.95016
C        109.01148        5.45653       -4.81143
O        110.05507        5.97951       -4.44631
C        108.05905        3.25123       -3.93684
C        108.35369        1.74889       -3.79288
C        107.45715        1.12030       -2.76275
O        107.98632        0.56395       -1.65568
O        106.24731        1.10564       -2.92487
H        107.90438        2.97018       -6.53672
H        110.03044        3.58423       -4.66850
H        107.00048        3.38094       -4.22204
H        108.22003        3.71088       -2.93553
H        109.41011        1.61854       -3.46882
H        108.21576        1.22621       -4.76248
N        107.94621        6.26965       -5.07578
C        106.64133        5.82933       -5.51594
H        105.99512        6.71439       -5.69763
H        106.72049        5.25638       -6.46142
H        106.13972        5.23922       -4.72880
H        108.07841        7.28735       -4.96430
Ca       103.71844       21.81977       -5.95360
O        102.69069       18.95449       -8.01635
H        102.65790       18.62220       -8.94861
H        103.03969       18.18987       -7.49280
O        100.95209       21.86680       -7.61683
H        100.05973       21.96355       -7.19866
H        100.77623       21.90361       -8.59053
O        104.78112       22.31684       -3.20811
H        105.51841       22.19419       -3.85798
H        104.45523       23.23721       -3.37373
O        101.29385       22.35362       -4.28958
H        101.75778       22.76454       -3.51741
H        100.42896       22.83178       -4.34517

Ca 1.0



