%chk=apoCaM-CA-Ng.loop2.water5.frame73.chk
%nprocshared=20
%mem=10GB
%nosave
#b3lyp/svp scf=(tight,noincore,xqc) Test 
#IOP(5/87=12) Density=Current Pop=(MK,readradii) iop(6/33=2) iop(6/42=6)

apoCaM-CA-Ng.loop2.water5.frame73 

   -2  1 
C         46.45931       55.00903       88.39458
C         46.51787       53.69042       89.11650
O         46.13566       52.67930       88.54575
H         46.80202       55.84433       89.03946
H         47.10555       54.96963       87.49183
H         45.41956       55.23959       88.09791
N         47.02420       53.62750       90.37886
C         47.16320       52.38355       91.13687
C         45.83974       51.77358       91.60338
O         45.88880       50.68541       92.15848
C         48.13495       52.57868       92.32244
C         47.77133       53.73044       93.22111
O         48.55681       54.65443       93.36826
O         46.58430       53.76130       93.85415
H         47.39027       54.50190       90.78320
H         47.64442       51.62868       90.47429
H         49.14880       52.76784       91.90434
H         48.19436       51.64314       92.91914
N         44.62875       52.36973       91.39274
C         43.33984       51.74552       91.70267
C         43.17457       50.44694       90.92081
O         42.71026       49.44921       91.45644
C         43.15164       51.55390       93.21620
H         44.59365       53.29129       90.93515
H         42.54642       52.44072       91.34945
H         43.26953       52.52600       93.73825
H         42.13591       51.15891       93.43136
H         43.89298       50.83827       93.62900
N         43.61888       50.39527       89.63610
C         43.61538       49.21857       88.78341
C         44.28278       48.01629       89.43136
O         43.80047       46.90129       89.27898
C         42.21773       48.95796       88.17758
C         41.78485       50.16767       87.38449
O         40.73341       50.73730       87.62538
O         42.62040       50.62906       86.42842
H         44.05944       51.23682       89.23803
H         44.27923       49.45687       87.92149
H         41.47550       48.70516       88.96580
H         42.28554       48.10174       87.47053
N         45.46465       48.16931       90.10324
C         46.30245       47.04197       90.47849
C         46.94760       46.44637       89.23486
O         47.43194       45.32561       89.29273
H         45.83715       49.11377       90.26134
H         45.67639       46.29141       91.01207
H         47.11184       47.36240       91.16835
N         46.93873       47.14088       88.05634
C         47.28685       46.57644       86.76479
C         48.77355       46.30623       86.59138
O         49.58355       47.21048       86.74612
C         46.81815       47.52936       85.64711
C         46.81549       46.81734       84.31883
N         47.63634       47.19524       83.31707
O         46.05680       45.87417       84.15103
H         46.55875       48.09714       88.04592
H         46.69347       45.64183       86.65555
H         47.45741       48.44021       85.64232
H         45.77276       47.85959       85.83944
H         48.29873       47.96548       83.44207
H         47.62388       46.69772       82.41601
N         49.18058       45.07736       86.17853
C         50.55431       44.71736       85.87846
C         51.12917       45.45888       84.68705
O         50.50407       45.48108       83.63541
H         48.46886       44.34253       86.04987
H         50.56109       43.64258       85.59444
H         51.19389       44.82811       86.77910
N         52.39260       45.97112       84.75372
C         53.12896       46.41289       83.56823
C         52.76806       47.82409       83.10130
O         53.20797       48.18471       82.01793
C         54.66328       46.18674       83.74557
C         55.31970       47.02913       84.85256
O         54.92959       44.81814       83.95067
H         52.90194       45.83996       85.63782
H         52.84911       45.73235       82.73099
H         55.17132       46.46391       82.79586
H         54.66845       44.57910       84.87795
H         55.22832       48.10675       84.62324
H         54.87153       46.83163       85.84726
H         56.40067       46.77766       84.91683
N         51.98558       48.67571       83.83567
C         51.56973       50.00140       83.35551
C         50.05767       50.15838       83.44667
O         49.49821       49.76363       84.45933
C         52.26910       51.16751       84.11731
C         51.87536       51.29132       85.61424
C         53.79804       51.03994       83.96979
C         52.23688       52.65771       86.20228
H         51.68011       48.38545       84.77557
H         51.86719       50.14240       82.29183
H         51.93958       52.09810       83.60022
H         52.34298       50.46763       86.19405
H         50.78094       51.22951       85.75368
H         54.15390       50.13532       84.50386
H         54.08640       50.95372       82.90106
H         54.33064       51.91496       84.38872
H         51.63746       53.44851       85.69651
H         51.98182       52.67236       87.28247
H         53.31074       52.89906       86.09367
N         49.33381       50.77235       82.45810
C         47.89171       51.02208       82.57511
C         47.30173       51.51115       81.24760
O         46.40988       50.85034       80.73600
C         47.58991       51.99245       83.75038
C         46.11683       52.10556       84.02154
O         45.38093       52.65599       83.22035
O         45.60352       51.59797       85.15999
H         49.82854       51.07987       81.60700
H         47.39728       50.05508       82.81428
H         48.02542       53.00057       83.58118
H         48.04162       51.59823       84.68200
N         47.77933       52.62085       80.61005
C         47.31218       53.07790       79.29326
C         47.08393       54.58877       79.30584
O         48.02098       55.27764       79.67862
C         48.42450       52.79587       78.26005
C         48.07616       53.34486       76.89210
C         47.10983       52.72452       76.08178
C         48.70590       54.51540       76.43297
C         46.78420       53.26830       74.83317
C         48.36952       55.06080       75.19252
C         47.41162       54.43678       74.39109
H         48.57513       53.11753       81.03988
H         46.40282       52.52621       78.97803
H         48.64526       51.70917       78.18888
H         49.35100       53.28969       78.62729
H         46.60932       51.82429       76.41593
H         49.44126       55.02037       77.04684
H         46.04153       52.78827       74.20915
H         48.84973       55.97059       74.85619
H         47.15459       54.86150       73.42931
N         45.96228       55.21282       78.81440
C         45.86764       56.66499       78.69193
C         45.88678       57.40024       80.01219
O         46.26734       58.56236       80.03671
C         44.53935       56.89288       77.96708
C         44.46380       55.65412       77.09882
C         44.87545       54.57347       78.09962
H         46.71712       56.99678       78.05259
H         43.69388       56.82589       78.69132
H         44.47314       57.86604       77.43411
H         43.48383       55.48610       76.60538
H         45.25130       55.73704       76.31246
H         44.04393       54.36999       78.80972
H         45.15176       53.65477       77.55398
N         45.43214       56.80004       81.14624
C         45.42283       57.46898       82.44268
C         46.84047       57.60143       83.00152
O         47.03393       58.33237       83.96249
C         44.55655       56.66767       83.42507
C         43.10292       56.49871       82.93281
C         42.43621       55.47495       83.79261
O         41.78164       55.82012       84.76165
O         42.72738       54.17183       83.57029
H         45.07031       55.83707       81.07808
H         44.97024       58.47840       82.31447
H         44.53432       57.16874       84.41997
H         45.02914       55.66809       83.54871
H         43.03667       56.12584       81.88883
H         42.57907       57.47914       82.96310
N         47.87213       56.89332       82.45783
C         49.25360       56.96660       82.87592
H         49.86774       57.29303       82.00852
H         49.40769       57.67539       83.71269
H         49.59796       55.95481       83.18100
H         47.67892       56.23872       81.70248
Ca        42.67102       52.37543       84.97360
O         40.12082       53.15023       85.84476
H         40.53603       53.82857       85.25918
H         40.65562       53.19191       86.67727
O         40.77839       51.17292       83.11144
H         40.82265       50.30097       82.64480
H         40.51548       51.81945       82.40947
O         43.48472       50.51732       82.12314
H         44.00227       51.21186       81.64700
H         44.11039       49.75560       82.21357
O         44.27184       53.96735       86.40442
H         43.86455       54.82686       86.13441
H         43.70598       53.65030       87.15364
O         42.81465       48.94183       84.43547
H         41.83685       48.84782       84.56196
H         43.07270       48.18200       83.85967

Ca 1.0



