%chk=apoCaM-CA-Ng.loop3.water4.frame133.chk
%nprocshared=20
%mem=10GB
%nosave
#b3lyp/svp scf=(tight,noincore,xqc) Test 
#IOP(5/87=12) Density=Current Pop=(MK,readradii) iop(6/33=2) iop(6/42=6)

apoCaM-CA-Ng.loop3.water4.frame133 

   0  1 
C         67.70005       50.69637        6.34532
C         69.10372       50.18585        6.20658
O         69.45104       49.20290        6.83887
H         67.11424       50.06520        7.04683
H         67.71859       51.73806        6.72972
H         67.20201       50.68606        5.35262
N         69.97759       50.83319        5.39106
C         71.36352       50.43799        5.16215
C         72.17241       50.45047        6.45648
O         72.93353       49.53100        6.72414
C         71.42401       49.10048        4.38789
C         72.81674       48.75111        3.94095
O         73.43105       49.49987        3.19775
O         73.38736       47.60101        4.34758
H         69.64425       51.67835        4.90090
H         71.80406       51.22324        4.50721
H         70.78922       49.18284        3.47911
H         71.01902       48.27952        5.01648
N         72.03757       51.49573        7.31440
C         72.84483       51.69037        8.51548
C         72.10092       51.25763        9.77255
O         72.63432       51.43398       10.85962
C         73.19395       53.19108        8.59908
C         73.96994       53.67882        7.35917
C         73.97961       55.20814        7.23184
C         74.65140       55.93540        8.40152
N         74.59887       57.38271        8.19426
H         71.32011       52.20738        7.10289
H         73.78182       51.09178        8.46802
H         73.78637       53.40639        9.51437
H         72.23302       53.74896        8.66883
H         73.47059       53.31865        6.43471
H         75.00045       53.26235        7.37115
H         72.92739       55.55933        7.14249
H         74.50922       55.47254        6.29071
H         75.71073       55.60758        8.48348
H         74.12894       55.69434        9.35219
H         75.09842       57.63961        7.31193
H         73.60301       57.69974        8.13674
H         75.05911       57.86376        8.99971
N         70.87384       50.66913        9.70516
C         70.10046       50.27565       10.87262
C         70.82564       49.24347       11.72376
O         71.25618       48.22330       11.20388
C         68.74036       49.71984       10.42716
C         67.90154       49.43240       11.62694
O         67.63239       50.41589       12.50588
O         67.49676       48.30406       11.83312
H         70.44724       50.51171        8.78404
H         69.90162       51.18944       11.47668
H         68.87863       48.79936        9.81597
H         68.21162       50.47640        9.80781
N         70.95183       49.44557       13.06654
C         71.63989       48.53478       13.96228
C         71.02810       47.15098       14.01169
O         71.73564       46.20192       13.70198
H         70.55627       50.30324       13.48098
H         71.62450       48.95400       14.99200
H         72.70365       48.46354       13.64530
N         69.74750       46.93651       14.44740
C         69.22858       45.57669       14.63785
C         69.06923       44.79252       13.32993
O         68.76785       43.60865       13.39183
C         67.90159       45.56322       15.43309
C         66.70360       45.85953       14.57101
N         65.73724       44.92779       14.40334
O         66.61942       46.92698       13.99167
H         69.17946       47.74787       14.73731
H         69.97104       45.05869       15.28551
H         67.95604       46.26542       16.29376
H         67.77216       44.54340       15.85604
H         65.78668       44.01269       14.87641
H         64.94317       45.11820       13.78081
N         69.24168       45.38607       12.11452
C         69.13540       44.68460       10.84957
C         67.71752       44.30466       10.48647
O         67.46394       43.14463       10.19684
H         69.49854       46.37997       12.06155
H         69.81507       43.80506       10.84475
H         69.47774       45.37282       10.04527
N         66.76468       45.27309       10.38788
C         65.44736       45.08233        9.78702
C         64.34709       45.38173       10.78334
O         64.31250       46.48050       11.32071
C         65.34090       46.04592        8.58717
C         66.38923       45.71999        7.55196
C         66.25655       44.57395        6.75157
C         67.51615       46.54328        7.39117
C         67.23066       44.26057        5.79877
C         68.49750       46.21396        6.45061
C         68.35554       45.07652        5.64788
O         69.29404       44.75919        4.73321
H         67.01969       46.22970       10.66575
H         65.32213       44.04033        9.41901
H         65.49324       47.08135        8.96762
H         64.33458       46.01466        8.11521
H         65.39347       43.92947        6.85996
H         67.64529       47.42459        8.00739
H         67.11322       43.38031        5.18042
H         69.37351       46.83386        6.34140
H         70.08639       45.30013        4.60152
N         63.40099       44.43731       11.06686
C         62.30782       44.64399       12.01045
C         62.54057       43.72042       13.19432
O         62.71027       44.22737       14.29231
C         60.92328       44.44807       11.31896
C         60.75388       45.33236       10.05143
C         59.75714       44.71124       12.29231
C         60.79222       46.84670       10.29638
H         63.46401       43.51836       10.60247
H         62.32923       45.68310       12.39845
H         60.84825       43.39166       10.97811
H         59.77660       45.08896        9.57825
H         61.54494       45.07664        9.31504
H         58.78316       44.55901       11.77985
H         59.78323       44.02111       13.14610
H         59.79294       45.74027       12.70438
H         59.97706       47.16913       10.97556
H         61.76677       47.16211       10.71764
H         60.64909       47.37632        9.33131
N         62.63341       42.36301       13.05177
C         63.03904       41.49812       14.16448
C         62.08259       41.52538       15.35167
O         62.46213       41.03724       16.40713
C         63.27586       40.05464       13.69527
O         62.08241       39.47125       13.24155
H         62.49986       41.95157       12.11604
H         64.01756       41.88786       14.52585
H         63.67417       39.44135       14.53213
H         64.05905       40.03978       12.90050
H         62.08851       39.52501       12.25046
N         60.85388       42.11118       15.27120
C         59.95269       42.31576       16.39578
C         60.62906       43.18342       17.44472
O         60.72547       42.78976       18.59888
C         59.43231       40.98000       16.94691
H         60.54041       42.47393       14.36782
H         59.06491       42.87693       16.02632
H         60.25116       40.35711       17.35996
H         58.69221       41.16818       17.75398
H         58.92580       40.41326       16.13691
N         61.14657       44.39304       17.08195
C         61.84577       45.27194       18.01470
C         61.61505       46.73431       17.67723
O         61.03766       47.03250       16.64088
C         63.34177       44.94857       17.99845
H         61.07992       44.66969       16.09234
H         61.44539       45.10701       19.03886
H         63.50007       43.88545       18.27898
H         63.76326       45.11393       16.98310
H         63.89138       45.58457       18.72364
N         62.00314       47.71129       18.55554
C         61.79594       49.14266       18.33040
C         60.32047       49.50276       18.14675
O         60.04019       50.63914       17.78745
C         62.62264       49.63049       17.12609
C         64.13022       49.39057       17.29606
C         64.80149       49.84858       16.04395
O         64.74211       51.01758       15.69625
O         65.31671       48.93206       15.21544
H         62.45473       47.43140       19.43864
H         62.16736       49.71175       19.21108
H         62.46233       50.72409       16.99375
H         62.27437       49.12746       16.19932
H         64.31667       48.30201       17.42578
H         64.53897       49.93040       18.17767
N         59.31699       48.60883       18.38486
C         57.92872       48.92945       18.14377
H         57.62980       49.81676       18.73914
H         57.77598       49.13325       17.06211
H         57.28900       48.06847       18.43304
H         59.52139       47.67113       18.75454
Ca        65.15326       49.38185       13.02280
O         64.62216       49.55476       10.14071
H         63.82224       49.33855        9.59914
H         64.97303       50.39378        9.74949
O         65.23652       52.37422       12.60411
H         64.32931       52.35168       12.99938
H         65.84236       52.21516       13.37093
O         62.09228       49.94778       12.68812
H         62.52934       50.57430       13.31824
H         62.21011       50.36534       11.79835
O         63.09613       47.51996       14.12650
H         63.40036       46.73644       14.64726
H         62.10859       47.47927       14.16561

Ca 1.0



