%chk=apoCaM-CA-Ng.loop4.water3.frame117.chk
%nprocshared=20
%mem=10GB
%nosave
#b3lyp/svp scf=(tight,noincore,xqc) Test 
#IOP(5/87=12) Density=Current Pop=(MK,readradii) iop(6/33=2) iop(6/42=6)

apoCaM-CA-Ng.loop4.water3.frame117 

   -3  1 
C         28.05378       77.59277       19.07392
C         27.38879       78.61114       19.94654
O         27.95917       78.95096       20.96281
H         29.02872       77.28445       19.51503
H         27.40724       76.69858       18.97579
H         28.24959       78.03273       18.07417
N         26.19261       79.16501       19.59638
C         25.51893       80.22403       20.34743
C         26.35182       81.49121       20.38753
O         26.74875       81.91982       21.45101
C         24.87583       79.75500       21.68888
C         25.58863       78.93023       22.75385
O         26.62092       79.36459       23.51177
O         25.10571       77.84583       23.04083
H         25.75806       78.85734       18.71334
H         24.62415       80.53961       19.76230
H         24.01750       79.12032       21.36969
H         24.42815       80.64489       22.18266
N         26.60120       82.14905       19.21268
C         27.38540       83.37130       18.98785
C         26.74948       84.62672       19.60439
O         26.29925       85.47466       18.84567
C         28.88625       83.18712       19.35091
C         29.76545       84.36774       18.84561
C         29.43370       81.85099       18.80925
C         29.85898       84.52286       17.31880
H         26.20494       81.72365       18.35926
H         27.34775       83.52218       17.88722
H         28.97693       83.14801       20.45817
H         30.79512       84.21992       19.23388
H         29.38579       85.32369       19.25527
H         30.50745       81.73886       19.06692
H         28.89613       80.99453       19.26170
H         29.31173       81.77890       17.70857
H         30.52043       85.38091       17.07751
H         30.30017       83.62140       16.84640
H         28.87143       84.73069       16.86180
N         26.65571       84.81689       20.95262
C         25.95181       85.94126       21.55819
C         26.71682       87.25497       21.47124
O         26.11289       88.21940       21.02323
C         25.56251       85.64356       23.02732
C         24.61201       84.48047       23.12134
O         23.52539       84.52822       22.56653
O         24.94396       83.38884       23.83428
H         27.04237       84.11763       21.58946
H         24.97408       86.07561       21.03900
H         25.04921       86.53076       23.45968
H         26.44720       85.43328       23.65206
N         27.99321       87.44653       21.92181
C         28.91804       86.39300       22.31800
C         30.20622       86.98084       22.87198
O         30.73475       87.87827       22.23142
H         28.34464       88.41746       21.91088
H         29.16704       85.80654       21.41574
H         28.46109       85.69943       23.01680
N         30.84239       86.54033       24.00399
C         30.49230       85.39396       24.83465
C         30.42038       84.13104       23.98927
O         29.35721       83.53060       23.91023
C         29.22933       85.66619       25.70074
C         28.97557       84.61206       26.75449
O         27.91995       84.74590       27.57919
O         29.71626       83.65008       26.88671
H         31.71930       87.01961       24.26152
H         31.31261       85.25069       25.57334
H         28.31384       85.75707       25.09480
H         29.37149       86.62767       26.23554
N         31.49788       83.61404       23.33378
C         32.86160       84.10531       23.34610
C         33.06524       85.31497       22.48056
O         32.49991       85.37790       21.39868
H         31.35899       82.74606       22.81520
H         33.48930       83.32437       22.86183
H         33.24978       84.22105       24.37958
N         33.96732       86.26727       22.84877
C         34.32021       87.40585       22.00288
C         34.94116       87.00108       20.66715
O         35.13627       87.89643       19.85532
C         35.27851       88.35653       22.75803
C         34.53614       89.11680       23.87107
C         35.42460       90.04324       24.66452
N         34.87447       90.86952       25.58379
O         36.63387       90.06105       24.48358
H         34.43515       86.16212       23.76243
H         33.39226       87.96595       21.75504
H         35.68178       89.12621       22.06331
H         36.13717       87.77353       23.16125
H         34.04665       88.41241       24.57598
H         33.74846       89.73303       23.38433
H         33.85475       90.88068       25.73480
H         35.46413       91.51215       26.13295
N         35.25657       85.70911       20.34153
C         35.75979       85.32977       19.02142
C         37.18421       84.80775       19.06530
O         37.76479       84.68646       17.99537
C         34.80144       84.33384       18.30850
C         33.45304       84.99952       18.00614
C         34.58216       83.03698       19.10711
H         35.13319       84.96522       21.03910
H         35.82517       86.23227       18.37399
H         35.24839       84.05882       17.32729
H         32.79538       84.29312       17.45772
H         32.94272       85.31349       18.93630
H         33.60092       85.89710       17.36902
H         33.93289       82.34452       18.53031
H         35.54831       82.52571       19.29973
H         34.07989       83.23588       20.07625
N         37.83107       84.50615       20.23171
C         39.25921       84.20028       20.26648
C         39.55867       82.75143       20.58510
O         40.69326       82.35544       20.35127
C         39.93893       85.08253       21.33023
C         39.64482       86.54605       21.12874
N         38.93710       87.23610       22.05559
O         40.03913       87.11096       20.12011
H         37.32680       84.54249       21.12793
H         39.71219       84.40699       19.27147
H         41.03872       84.92023       21.33100
H         39.55200       84.77060       22.32637
H         38.58508       86.77254       22.90682
H         38.72715       88.23549       21.91974
N         38.64056       81.91052       21.14555
C         38.95883       80.52739       21.51845
C         37.75912       79.77874       22.07405
O         36.78923       80.41101       22.46503
C         40.11284       80.48566       22.56660
C         39.85330       81.37565       23.77315
C         40.64791       82.51712       23.98714
C         38.82792       81.08974       24.69204
C         40.40952       83.35553       25.08155
C         38.58974       81.92687       25.78316
C         39.37903       83.06569       25.98095
O         39.15777       83.88369       27.02956
H         37.69425       82.27403       21.32788
H         39.26465       79.99024       20.59295
H         41.04671       80.81818       22.07532
H         40.31808       79.44570       22.89704
H         41.44743       82.76796       23.30153
H         38.20825       80.22010       24.57881
H         41.02537       84.23352       25.22859
H         37.79043       81.68689       26.47351
H         38.45327       83.71572       27.67207
N         37.82269       78.41676       22.21074
C         36.81877       77.54066       22.82139
C         35.58523       77.30336       21.94722
O         35.26944       76.14427       21.71136
C         36.52593       77.94805       24.27830
C         35.73233       76.86640       25.03368
C         35.63333       77.13112       26.51394
O         36.14542       78.11813       27.02027
O         34.99492       76.24322       27.29921
H         38.69380       77.95560       21.90407
H         37.30225       76.53941       22.90761
H         35.99577       78.92187       24.33672
H         37.51248       78.04100       24.78410
H         36.24648       75.88775       24.91460
H         34.71057       76.78617       24.60637
N         34.87112       78.31903       21.38216
C         33.73369       78.12068       20.48616
C         34.12181       77.34805       19.22268
O         33.22537       77.00232       18.46482
C         33.14045       79.49179       20.05147
C         32.70109       80.42342       21.20043
C         31.46306       79.97803       21.91686
O         30.43929       80.84718       22.00300
O         31.40787       78.90018       22.48482
H         35.14833       79.27447       21.56936
H         32.96471       77.53296       21.03071
H         32.27870       79.34777       19.36248
H         33.93730       80.02485       19.48744
H         32.48302       81.42164       20.76270
H         33.51072       80.57940       21.93842
N         35.41865       77.04372       18.91467
C         35.77505       76.27886       17.74073
H         36.87758       76.14143       17.70169
H         35.29873       75.27637       17.78467
H         35.44886       76.81189       16.82386
H         36.19471       77.35577       19.51263
Ca        28.42881       80.54103       22.92378
O         27.13539       81.79907       25.72714
H         27.07835       82.50280       25.03392
H         27.00821       82.28289       26.58119
O         30.32980       80.59666       25.42807
H         31.22582       81.01014       25.35181
H         29.83136       81.19026       26.04246
O         29.31965       77.80773       24.46804
H         30.26868       77.98292       24.68825
H         29.07910       77.02776       25.02757

Ca 1.0



