%chk=apoCaM-CA-Ng.loop4.water4.frame757.chk
%nprocshared=20
%mem=10GB
%nosave
#b3lyp/svp scf=(tight,noincore,xqc) Test 
#IOP(5/87=12) Density=Current Pop=(MK,readradii) iop(6/33=2) iop(6/42=6)

apoCaM-CA-Ng.loop4.water4.frame757 

   -3  1 
C        114.91168       29.82039        7.09677
C        116.34503       29.47886        6.81958
O        116.63044       28.35965        6.41944
H        114.25022       28.95339        6.89036
H        114.79668       30.11791        8.15994
H        114.60222       30.66691        6.44667
N        117.30575       30.42868        6.99273
C        118.72602       30.23948        6.71404
C        118.93340       29.85893        5.25760
O        119.64378       28.90575        4.96414
C        119.36096       29.22049        7.68743
C        119.18127       29.63660        9.11755
O        119.65606       30.68812        9.51547
O        118.50241       28.84478        9.96930
H        117.01099       31.36518        7.31156
H        119.22924       31.22100        6.86701
H        120.45000       29.13221        7.48333
H        118.90254       28.21936        7.54078
N        118.28561       30.55582        4.28333
C        118.40073       30.21664        2.86549
C        119.76051       30.65408        2.32575
O        120.41371       31.44631        2.99193
C        117.23127       30.85066        2.04067
C        117.23819       32.40812        2.09276
C        115.88788       30.25947        2.51315
C        116.18517       33.06040        1.19602
H        117.64035       31.29807        4.58432
H        118.31557       29.11076        2.78829
H        117.35443       30.54992        0.98244
H        118.22753       32.77765        1.74943
H        117.07436       32.78059        3.12413
H        115.66749       30.53812        3.56490
H        115.04986       30.60031        1.87377
H        115.91580       29.15112        2.44033
H        115.15773       32.80344        1.52367
H        116.28591       34.16507        1.25781
H        116.33037       32.74867        0.14071
N        120.28472       30.23527        1.13390
C        119.73850       29.20580        0.24861
C        120.73209       28.05232        0.05528
O        120.46200       27.17518       -0.75352
C        119.35521       29.83094       -1.11571
C        120.49560       30.37264       -1.94493
O        121.77476       30.30061       -1.52864
O        120.25306       30.87228       -3.03153
H        121.17948       30.66445        0.85176
H        118.80919       28.77116        0.66518
H        118.63128       30.65435       -0.94085
H        118.83921       29.05534       -1.72359
N        121.90633       27.99464        0.75212
C        122.95355       27.01115        0.52867
C        122.50387       25.58483        0.71281
O        122.75687       24.77390       -0.16694
H        122.10922       28.70064        1.47295
H        123.76969       27.20437        1.25869
H        123.37787       27.14215       -0.49075
N        121.84702       25.20076        1.84114
C        121.47196       23.81686        2.12250
C        120.74638       23.14315        0.96236
O        121.14235       22.04096        0.60594
C        120.72160       23.70026        3.47131
C        119.45763       24.51357        3.57909
O        119.36794       25.48593        4.50675
O        118.49725       24.28035        2.86620
H        121.61995       25.92698        2.53822
H        122.41082       23.23432        2.26853
H        121.41559       24.04950        4.26803
H        120.49185       22.63205        3.67816
N        119.73605       23.74958        0.27432
C        119.08860       23.10943       -0.86714
C        118.21753       21.92197       -0.48509
O        117.69097       21.27170       -1.37573
H        119.45858       24.71024        0.52371
H        119.87131       22.79244       -1.59098
H        118.43246       23.84545       -1.37932
N        117.97628       21.61748        0.81977
C        117.10224       20.56253        1.30873
C        115.66923       20.74297        0.83319
O        115.01871       19.76944        0.47757
C        117.65820       19.14735        1.04695
C        119.10960       19.00448        1.53038
C        119.55224       17.56347        1.54144
N        119.53851       16.81309        0.41554
O        119.92667       17.06423        2.59227
H        118.39647       22.19819        1.55331
H        117.06829       20.68539        2.41569
H        117.60406       18.89655       -0.03423
H        117.01608       18.43157        1.60759
H        119.19606       19.40473        2.56467
H        119.77875       19.59839        0.87080
H        119.22305       17.20621       -0.48217
H        119.83741       15.82674        0.44624
N        115.10752       21.98440        0.83759
C        113.69613       22.23842        0.55415
C        113.02072       22.91512        1.73879
O        111.83270       22.69151        1.92805
C        113.47378       23.04661       -0.75405
C        114.08220       24.45649       -0.71273
C        114.00945       22.27736       -1.96958
H        115.72053       22.77831        1.06187
H        113.16425       21.27168        0.40393
H        112.37473       23.15977       -0.89729
H        113.64885       25.04623        0.12078
H        115.18471       24.41406       -0.59619
H        113.84730       24.99510       -1.65608
H        113.77395       22.82782       -2.90573
H        115.10924       22.14581       -1.90230
H        113.53068       21.27659       -2.03317
N        113.69629       23.78177        2.55474
C        113.08870       24.48149        3.67678
C        113.79276       24.06915        4.96775
O        114.78093       23.34710        4.90373
C        113.13875       25.99018        3.33881
C        112.35592       26.89821        4.25288
N        111.22560       27.50067        3.81068
O        112.75343       27.12127        5.38513
H        114.68592       23.99619        2.37875
H        112.02234       24.18155        3.77193
H        112.69267       26.08224        2.32372
H        114.18893       26.34767        3.26109
H        110.87236       27.33335        2.85646
H        110.69082       28.12972        4.42672
N        113.27376       24.39917        6.18427
C        113.82136       23.89275        7.44834
C        112.84990       24.16604        8.60409
O        111.89805       24.91188        8.42657
C        115.24044       24.48140        7.72160
C        116.06700       23.63956        8.67132
C        116.08053       23.88176       10.05526
C        116.84439       22.58430        8.15693
C        116.82704       23.05956       10.90950
C        117.60041       21.77527        9.00882
C        117.58689       22.00101       10.38749
O        118.30332       21.19413       11.19677
H        112.39209       24.92645        6.18279
H        113.88994       22.78833        7.32738
H        115.19069       25.54556        8.04031
H        115.82317       24.51542        6.77797
H        115.49597       24.68993       10.47419
H        116.86357       22.38409        7.09240
H        116.81057       23.24180       11.97652
H        118.19055       20.96562        8.59630
H        118.30737       21.29819       12.15880
N        112.99290       23.54883        9.80760
C        112.07696       23.73431       10.92921
C        112.85513       24.24057       12.13425
O        113.14283       23.44890       13.02260
C        111.38022       22.39228       11.24425
C        110.49615       21.91004       10.08463
C        109.77230       20.63071       10.41153
O        109.02442       20.13631        9.58391
O        109.93067       20.02206       11.60444
H        113.75608       22.86942        9.93037
H        111.26287       24.45365       10.70767
H        110.73198       22.53750       12.13771
H        112.14151       21.61438       11.47803
H        111.12162       21.74137        9.18202
H        109.73941       22.69151        9.85479
N        113.26848       25.53367       12.27145
C        112.93739       26.64798       11.38298
C        111.46094       26.99079       11.48178
O        110.96886       27.18509       12.58544
C        113.73351       27.90427       11.79196
C        115.24073       27.72188       11.56796
C        115.99114       28.93212       12.03223
O        115.76920       30.02447       11.53442
O        116.91566       28.81533       13.00423
H        113.83935       25.74258       13.10634
H        113.22015       26.41179       10.33496
H        113.53178       28.14167       12.86151
H        113.39648       28.76833       11.17513
H        115.44075       27.55751       10.48643
H        115.61194       26.83943       12.12951
N        110.70748       27.13424       10.35534
C        109.30421       27.49661       10.36726
H        108.90379       27.61739       11.39558
H        109.16975       28.45698        9.82560
H        108.71650       26.70972        9.85055
H        111.15022       27.01305        9.43479
Ca       118.38503       31.32500       12.10673
O        116.81231       32.93268       14.10946
H        116.14256       32.21945       13.95629
H        117.33631       32.61763       14.88817
O        120.81514       33.00160       12.47074
H        120.29751       33.50905       13.14550
H        120.50451       33.35834       11.60062
O        120.60943       29.09995       12.33195
H        120.80667       28.15057       12.13189
H        121.35043       29.39061       12.92075
O        119.00955       30.16234       14.92355
H        119.10749       30.78438       15.68740
H        118.83924       29.28033       15.33981

Ca 1.0



