%chk=apoCaM-CA-Ng.loop1.water2.frame1122.chk
%nprocshared=20
%mem=10GB
%nosave
#b3lyp/svp scf=(tight,noincore,xqc) Test 
#IOP(5/87=12) Density=Current Pop=(MK,readradii) iop(6/33=2) iop(6/42=6)

apoCaM-CA-Ng.loop1.water2.frame1122 

   0  1 
C         88.41292       48.87656       50.40077
C         88.82250       49.88863       49.37080
O         88.82774       51.07028       49.68713
H         87.35866       49.05345       50.70317
H         88.50099       47.84099       50.01145
H         89.06632       48.97626       51.29261
N         89.14608       49.50122       48.10141
C         89.54639       50.44271       47.05554
C         88.36683       50.80316       46.16648
O         88.44314       50.69847       44.94833
C         90.77750       49.91317       46.28144
C         90.55040       48.62690       45.51401
O         91.47232       48.14049       44.88020
O         89.35147       48.00979       45.49966
H         89.06577       48.50209       47.86763
H         89.84905       51.39994       47.52864
H         91.60501       49.74824       47.00433
H         91.10436       50.69146       45.55751
N         87.22730       51.26710       46.74177
C         86.05076       51.69725       45.99951
C         86.34392       52.96253       45.19382
O         86.11211       52.92674       43.99609
C         84.81747       51.86601       46.92170
C         84.52349       50.54972       47.66988
C         83.25085       50.61205       48.51449
C         83.08726       49.29847       49.29645
N         81.86092       49.29970       50.08960
H         87.19687       51.30628       47.76882
H         85.76376       50.88325       45.29364
H         83.94148       52.12356       46.28592
H         84.95289       52.68383       47.65779
H         85.36758       50.31029       48.34845
H         84.41963       49.72136       46.93472
H         82.37550       50.77083       47.84752
H         83.31608       51.45777       49.23331
H         83.96083       49.16528       49.97479
H         83.06301       48.43914       48.58942
H         81.02978       49.37054       49.45910
H         81.80414       48.40358       50.62590
H         81.86760       50.09900       50.76367
N         86.89636       54.10664       45.71539
C         87.33765       54.29507       47.09535
C         88.86176       54.27824       47.15109
O         89.50193       54.23853       46.10488
C         86.71736       55.57530       47.70089
C         87.22369       56.79922       47.00545
O         88.54021       57.06518       47.03216
O         86.46783       57.51170       46.36458
H         87.09417       54.87422       45.05117
H         86.99715       53.46920       47.72886
H         86.96961       55.65438       48.77759
H         85.61027       55.51405       47.60951
N         89.51452       54.23255       48.34164
C         90.95973       54.08097       48.43689
C         91.72601       55.36064       48.18913
O         91.13579       56.40649       47.99434
H         88.95939       54.18701       49.21102
H         91.29774       53.27929       47.74595
H         91.21633       53.76519       49.46995
N         93.08799       55.32583       48.22434
C         93.95561       56.50768       48.18328
C         94.87190       56.46807       49.41702
O         94.82084       55.47495       50.12883
C         94.76160       56.47333       46.87007
C         93.84884       56.50151       45.67470
O         93.02484       57.54857       45.47790
O         93.85275       55.57876       44.87569
H         93.54017       54.40300       48.31414
H         93.34714       57.43703       48.21601
H         95.38618       55.55285       46.84461
H         95.43176       57.34372       46.78326
N         95.74208       57.45386       49.79619
C         95.95057       58.75910       49.19818
C         94.74198       59.64327       49.33587
O         94.19652       59.73835       50.42767
H         96.31305       57.26339       50.63615
H         96.32313       58.69478       48.15991
H         96.75713       59.26193       49.77616
N         94.31990       60.39850       48.28676
C         93.20402       61.32753       48.39682
C         91.90585       60.56547       48.51490
O         91.61743       59.75515       47.64595
C         93.10782       62.26507       47.17316
C         94.33289       63.17137       47.03397
O         91.97683       63.08446       47.32793
H         94.84482       60.34640       47.40014
H         93.35487       61.98648       49.28290
H         93.01360       61.63876       46.25529
H         91.56002       63.17157       46.43466
H         95.25801       62.57981       46.88507
H         94.19896       63.83785       46.15525
H         94.44781       63.80471       47.94015
N         91.04604       60.84029       49.53591
C         89.70305       60.29134       49.67213
C         88.83362       60.70676       48.47655
O         89.07980       60.28209       47.35906
C         89.69886       58.74402       49.86409
C         90.65783       58.24113       50.97756
C         88.27185       58.21060       50.09975
C         90.29465       58.67352       52.40108
H         91.33573       61.52976       50.24687
H         89.26782       60.73064       50.59680
H         90.05783       58.29944       48.92251
H         91.69025       58.58218       50.75470
H         90.67251       57.12834       50.95652
H         87.82349       58.64390       51.01707
H         87.60590       58.46832       49.25188
H         88.28999       57.10424       50.19602
H         89.30356       58.27419       52.70004
H         91.04400       58.26015       53.10932
H         90.29565       59.77761       52.49598
N         87.73903       61.48335       48.67496
C         86.70117       61.69686       47.66249
C         87.01108       62.70385       46.53868
O         86.08554       62.96125       45.77852
C         85.36630       62.06624       48.37837
C         85.39636       63.43470       49.07225
O         85.04830       61.08575       49.33479
H         87.54917       61.76955       49.64565
H         86.49017       60.71880       47.17356
H         84.54377       62.10932       47.62737
H         84.80366       60.26157       48.83732
H         86.16342       63.47865       49.87162
H         85.59750       64.24242       48.33911
H         84.40828       63.62865       49.54122
N         88.22368       63.30900       46.33261
C         88.39839       64.38811       45.34171
C         89.21334       63.97807       44.11528
O         90.34260       63.52961       44.24642
C         89.01084       65.65077       45.99076
C         88.11745       66.20521       47.10301
O         90.28664       65.37006       46.50229
H         89.03156       63.03642       46.91140
H         87.40644       64.71266       44.95926
H         89.09105       66.42627       45.19084
H         90.75531       66.23958       46.60438
H         88.01815       65.47178       47.93024
H         88.56193       67.13979       47.50620
H         87.10959       66.44319       46.70117
N         88.68652       64.18387       42.86712
C         89.35130       63.92460       41.59103
C         89.65176       62.44950       41.44018
O         90.81002       62.07828       41.29934
C         90.61524       64.79736       41.37734
C         90.36820       66.29730       41.59043
C         91.56910       67.11827       41.09424
C         91.42386       68.60216       41.45537
N         92.51047       69.39178       40.87433
H         87.73586       64.57835       42.79827
H         88.64381       64.20191       40.77676
H         90.94852       64.62825       40.32793
H         91.44082       64.48531       42.05358
H         90.19980       66.47276       42.67535
H         89.46720       66.62712       41.02875
H         91.63562       67.00699       39.98856
H         92.51172       66.73768       41.54496
H         91.44309       68.70392       42.56379
H         90.45259       68.99496       41.08239
H         92.44543       69.36920       39.83031
H         92.42322       70.38348       41.19410
H         93.43936       69.01818       41.17667
N         88.63500       61.54175       41.48993
C         88.86964       60.10620       41.47619
C         88.53334       59.52880       42.86550
O         89.48810       58.55328       43.15317
C         88.15944       59.39740       40.30847
C         88.83126       59.69839       38.96724
C         88.09638       59.01922       37.84767
O         87.94342       57.68046       37.84949
O         87.63440       59.67743       36.92986
H         87.67154       61.88748       41.60220
H         89.95836       59.91285       41.34647
H         87.09856       59.70511       40.25924
H         88.20733       58.29793       40.47157
H         89.87541       59.31644       38.99102
H         88.85714       60.79530       38.79153
N         87.18540       58.95616       43.05864
C         86.07066       59.88979       42.88009
H         85.22115       59.58348       43.53016
H         86.34089       60.93047       43.14534
H         85.67791       59.82044       41.84869
H         87.15395       58.66385       44.06201
Ca        89.34461       58.27801       45.36918
O         91.88480       60.12837       44.26819
H         91.28890       60.85919       44.57005
H         92.67212       60.58986       43.88412
O         90.77676       55.94414       43.24874
H         89.88583       55.86770       42.82313
H         90.69196       55.43515       44.09280

Ca 1.0



