%chk=apoCaM-CA-Ng.loop3.water3.frame897.chk
%nprocshared=20
%mem=10GB
%nosave
#b3lyp/svp scf=(tight,noincore,xqc) Test 
#IOP(5/87=12) Density=Current Pop=(MK,readradii) iop(6/33=2) iop(6/42=6)

apoCaM-CA-Ng.loop3.water3.frame897 

   0  1 
C          5.36095      -14.26740       15.72747
C          4.12624      -14.97639       15.25364
O          3.73037      -15.96564       15.85143
H          6.12347      -14.25824       14.92150
H          5.10252      -13.21882       15.99174
H          5.78534      -14.76244       16.62619
N          3.44259      -14.48705       14.18598
C          2.18130      -15.04358       13.71193
C          2.36269      -16.44646       13.13970
O          3.20650      -16.64111       12.27626
C          1.55961      -14.08708       12.67377
C          0.11335      -14.38042       12.36381
O         -0.49186      -13.64727       11.60085
O         -0.53782      -15.40943       12.93931
H          3.81011      -13.63436       13.73386
H          1.47787      -15.06447       14.56800
H          2.17282      -14.08867       11.74832
H          1.57386      -13.05727       13.08851
N          1.55255      -17.46092       13.55715
C          1.60514      -18.83735       13.05618
C          1.45951      -18.88729       11.53998
O          2.30343      -19.47494       10.87841
C          0.46965      -19.68178       13.69928
C          0.67303      -19.87774       15.21398
C         -0.47749      -20.61552       15.92242
C         -0.73740      -22.02971       15.38041
N         -1.70306      -22.73925       16.22126
H          0.82675      -17.22453       14.24852
H          2.58040      -19.30089       13.32606
H          0.45535      -20.68515       13.22163
H         -0.51069      -19.19187       13.50855
H          0.76993      -18.89505       15.71510
H          1.61991      -20.43628       15.37644
H         -1.41360      -20.01775       15.85524
H         -0.19678      -20.69291       16.99567
H          0.21332      -22.60597       15.36401
H         -1.13280      -21.96578       14.34289
H         -2.60183      -22.20760       16.27827
H         -1.89000      -23.68250       15.81054
H         -1.30935      -22.86699       17.18241
N          0.40154      -18.28584       10.93526
C          0.12380      -18.32908        9.49412
C          0.24637      -16.95814        8.81605
O          0.00907      -16.88189        7.61798
C         -1.29002      -18.92554        9.23421
C         -2.41621      -18.10178        9.81717
O         -2.11655      -17.05657       10.60528
O         -3.57716      -18.35325        9.54034
H         -0.22614      -17.76858       11.55852
H          0.85793      -18.99058        8.98352
H         -1.35320      -19.96215        9.62650
H         -1.43443      -18.97362        8.13171
N          0.64394      -15.84337        9.49129
C          0.82064      -14.54247        8.85687
C         -0.45841      -13.81890        8.45163
O         -0.32241      -12.73219        7.90802
H          0.91984      -15.93200       10.47533
H          1.48353      -14.66052        7.97206
H          1.34464      -13.86819        9.56563
N         -1.71499      -14.31260        8.67768
C         -2.93796      -13.61298        8.26617
C         -3.88820      -13.33051        9.47110
O         -3.20215      -13.10133       10.66037
C         -3.67540      -14.49517        7.23473
C         -2.81252      -14.79991        6.03403
N         -2.48110      -16.07625        5.72302
O         -2.41190      -13.88347        5.33232
H         -1.81657      -15.22698        9.12446
H         -2.68272      -12.63673        7.80075
H         -4.59874      -13.99843        6.87489
H         -3.97376      -15.44661        7.73068
H         -2.80639      -16.86647        6.29934
H         -1.89321      -16.27807        4.90047
N         -4.83969      -12.23538        9.21185
C         -5.90133      -12.16657       10.23241
C         -5.43167      -11.53676       11.53088
O         -4.99627      -10.39422       11.51819
H         -5.31757      -12.43460        8.30438
H         -6.33023      -13.17983       10.40189
H         -6.72410      -11.52580        9.84677
N         -5.50285      -12.24075       12.69612
C         -5.09159      -11.73818       14.00695
C         -3.85584      -12.49168       14.48203
O         -3.32265      -13.29215       13.72693
C         -6.26669      -11.89108       15.00456
C         -7.40603      -10.93412       14.73997
C         -7.21398       -9.54864       14.89788
C         -8.67874      -11.41023       14.38625
C         -8.27684       -8.65903       14.71150
C         -9.73943      -10.51734       14.19381
C         -9.54509       -9.14167       14.36021
O        -10.58267       -8.29715       14.18821
H         -5.84976      -13.21087       12.65386
H         -4.78786      -10.66939       13.96090
H         -5.94360      -11.68074       16.04389
H         -6.61256      -12.94756       14.98359
H         -6.24630       -9.15669       15.18586
H         -8.85357      -12.47154       14.26619
H         -8.11593       -7.59663       14.84953
H        -10.71729      -10.89621       13.92491
H        -10.49494       -7.34065       14.30954
N         -3.31086      -12.22533       15.70934
C         -2.05010      -12.76189       16.22782
C         -2.06811      -14.28482       16.36564
O         -2.33627      -14.97089       15.39217
C         -0.83872      -12.28858       15.36948
C          0.52464      -12.65788       16.02254
C         -0.89863      -10.77782       15.07281
C          0.82142      -11.98589       17.36990
H         -3.78335      -11.53643       16.31328
H         -1.91469      -12.31920       17.23554
H         -0.88573      -12.80162       14.38733
H          1.34125      -12.37495       15.32584
H          0.57568      -13.75315       16.17293
H         -0.91283      -10.17983       16.00644
H         -0.02578      -10.47566       14.45575
H         -1.81083      -10.52655       14.49253
H          1.82159      -12.31082       17.72512
H          0.84158      -10.88159       17.27290
H          0.08575      -12.27329       18.14620
N         -1.70293      -14.88410       17.53895
C         -1.63385      -16.33877       17.69391
C         -2.45043      -16.85484       18.86894
O         -2.54778      -18.07009       18.99839
C         -0.17096      -16.76616       17.87158
O          0.57777      -16.35756       16.76344
H         -1.39434      -14.29024       18.32166
H         -2.02464      -16.84161       16.78274
H         -0.11880      -17.87577       17.95944
H          0.24237      -16.29819       18.79336
H          1.49441      -16.70493       16.91182
N         -3.02972      -16.03127       19.79155
C         -3.76178      -16.55623       20.94233
C         -5.06181      -17.22172       20.50060
O         -5.45757      -17.01219       19.36220
C         -4.04910      -15.42004       21.92528
H         -2.90771      -15.01182       19.71385
H         -3.10303      -17.30054       21.44232
H         -4.67442      -14.63753       21.44532
H         -4.57464      -15.79336       22.81600
H         -3.09223      -14.96081       22.25590
N         -5.78031      -18.08611       21.28131
C         -5.41274      -18.56476       22.61152
C         -6.62105      -18.57502       23.54999
O         -7.70402      -18.91289       23.08997
C         -4.91848      -20.00615       22.47319
H         -6.60514      -18.52585       20.84116
H         -4.56674      -17.99791       23.03662
H         -4.03069      -20.03517       21.80580
H         -4.62168      -20.41029       23.46481
H         -5.70952      -20.65725       22.04277
N         -6.53292      -18.36298       24.89876
C         -5.30051      -18.01898       25.59942
C         -4.99880      -16.53391       25.48076
O         -3.90579      -16.13618       25.86279
C         -5.38581      -18.38786       27.09800
C         -5.60404      -19.89238       27.32246
C         -5.62275      -20.21288       28.79010
O         -6.55369      -19.66128       29.59234
O         -4.79810      -20.97928       29.26216
H         -7.38913      -18.50025       25.45931
H         -4.46414      -18.61451       25.17479
H         -6.20978      -17.81365       27.57780
H         -4.42852      -18.10402       27.59050
H         -4.78362      -20.45977       26.83011
H         -6.56929      -20.21640       26.87991
N         -5.92488      -15.64659       25.00913
C         -5.68782      -14.22096       24.90734
H         -4.65905      -13.93828       25.21331
H         -5.84263      -13.89736       23.85722
H         -6.41012      -13.68255       25.55548
H         -6.85922      -15.97332       24.72392
Ca        -3.19319      -15.25243       11.33922
O         -5.48344      -15.64614       13.87305
H         -6.38240      -15.48860       13.48899
H         -5.59264      -15.46801       14.84080
O         -6.03502      -16.13385       10.65309
H         -5.49058      -16.95154       10.77555
H         -5.85510      -15.85248        9.72103
O         -3.08949      -17.77900       14.01977
H         -3.04935      -18.73040       13.74879
H         -3.50460      -17.79534       14.91864

Ca 1.0



