%chk=apoCaM-CA-Ng.loop3.water6.frame60.chk
%nprocshared=20
%mem=10GB
%nosave
#b3lyp/svp scf=(tight,noincore,xqc) Test 
#IOP(5/87=12) Density=Current Pop=(MK,readradii) iop(6/33=2) iop(6/42=6)

apoCaM-CA-Ng.loop3.water6.frame60 

   0  1 
C         31.82373       46.29801       67.60666
C         30.53730       46.28536       66.83717
O         30.03129       45.21527       66.54316
H         32.60400       46.81612       67.00904
H         31.68286       46.83363       68.56793
H         32.16901       45.26281       67.81668
N         29.95748       47.46006       66.46310
C         28.74253       47.57206       65.65848
C         28.96930       46.96629       64.27634
O         28.17063       46.16581       63.80865
C         27.51245       46.98734       66.39499
C         27.23063       47.71233       67.68506
O         28.14930       47.74605       68.66916
O         26.15711       48.26872       67.85050
H         30.42151       48.33928       66.73953
H         28.54857       48.65503       65.48990
H         27.66389       45.91204       66.61550
H         26.61921       47.07468       65.73815
N         30.08852       47.31672       63.57672
C         30.43523       46.83568       62.23310
C         30.51316       45.30652       62.13566
O         30.53101       44.78581       61.02928
C         31.81196       47.45155       61.86408
C         32.36698       47.13203       60.46801
C         33.79816       47.68458       60.34320
C         34.47583       47.32810       59.01177
N         33.84662       47.99423       57.87212
H         30.73484       47.97656       64.03825
H         29.64319       47.19071       61.53733
H         32.54184       47.08332       62.62087
H         31.74829       48.55866       61.96037
H         31.69206       47.56571       59.70106
H         32.43508       46.03703       60.32039
H         34.41240       47.22666       61.15085
H         33.80696       48.78678       60.48809
H         34.46449       46.22491       58.86438
H         35.53897       47.65163       59.06876
H         33.87778       49.03128       58.00502
H         34.37780       47.75070       57.00522
H         32.85890       47.67750       57.75380
N         30.59623       44.52713       63.24700
C         30.74472       43.07172       63.22874
C         29.56081       42.38250       62.55640
O         28.49768       42.97673       62.43813
C         30.90207       42.62184       64.69808
C         31.08403       41.16338       64.96913
O         30.29823       40.59250       65.70548
O         32.14777       40.48917       64.50680
H         30.61788       44.99842       64.15782
H         31.66785       42.83051       62.65715
H         29.99518       42.95798       65.23817
H         31.77799       43.14776       65.13588
N         29.70615       41.12639       62.03682
C         28.62596       40.39983       61.37968
C         27.58231       39.86396       62.34550
O         26.58616       39.32865       61.88105
H         30.63689       40.68582       62.06340
H         29.04297       39.52071       60.84282
H         28.15387       41.06269       60.62159
N         27.74930       39.95105       63.69553
C         26.77733       39.50614       64.68634
C         26.26732       40.69469       65.50084
O         25.44497       40.48982       66.38285
C         27.42607       38.46306       65.62410
C         27.94641       37.25215       64.88828
N         27.11158       36.44852       64.18876
O         29.13739       36.98422       64.94111
H         28.60844       40.37043       64.05756
H         25.89501       39.04327       64.19310
H         26.68323       38.11731       66.37513
H         28.26545       38.94318       66.17330
H         26.10180       36.64553       64.14268
H         27.47614       35.61859       63.69716
N         26.68339       41.97131       65.24231
C         26.19729       43.14240       65.94168
C         26.61802       43.16372       67.38516
O         25.75268       43.23174       68.24721
H         27.34848       42.15690       64.48487
H         25.09131       43.19927       65.84580
H         26.62566       44.04775       65.46070
N         27.93929       43.12758       67.72751
C         28.38154       43.21925       69.11716
C         29.85049       42.83346       69.28830
O         30.55130       42.62685       68.30637
C         28.12251       44.65394       69.63861
C         28.19980       44.78001       71.13546
C         27.28034       44.08437       71.93823
C         29.16673       45.59609       71.74393
C         27.32681       44.20084       73.32809
C         29.21233       45.70996       73.13733
C         28.29018       45.01289       73.93352
O         28.31743       45.11728       75.27706
H         28.62511       43.00828       66.97255
H         27.79234       42.46468       69.68395
H         27.10528       44.99591       69.35979
H         28.84513       45.33104       69.13561
H         26.52309       43.45577       71.48591
H         29.88419       46.14113       71.14299
H         26.60953       43.66130       73.93363
H         29.96235       46.34082       73.59674
H         28.96208       45.67303       75.73708
N         30.34655       42.61811       70.54088
C         31.65039       42.02013       70.80329
C         31.44758       40.54377       71.18113
O         32.42744       39.83901       71.37264
C         32.44277       42.88928       71.84063
C         33.94882       42.51054       71.87521
C         31.82360       42.84588       73.25263
C         34.79848       43.43938       72.75101
H         29.71285       42.73781       71.34094
H         32.24421       42.01654       69.86270
H         32.38716       43.93898       71.47347
H         34.35101       42.58235       70.84111
H         34.09116       41.47041       72.23358
H         32.30944       43.58184       73.92347
H         30.74800       43.10370       73.24419
H         31.95720       41.84474       73.70161
H         34.68707       44.49477       72.42286
H         34.52094       43.35536       73.82145
H         35.86839       43.15436       72.66565
N         30.18762       39.99222       71.23350
C         29.90850       38.57892       71.46960
C         30.26313       38.11289       72.86940
O         30.12185       36.92321       73.11930
C         28.42103       38.28191       71.19830
O         28.10336       38.63146       69.87834
H         29.36785       40.57619       71.02901
H         30.50459       37.98177       70.74403
H         27.79635       38.87107       71.90828
H         28.22488       37.19574       71.33933
H         27.12295       38.51196       69.78647
N         30.77337       38.95531       73.81830
C         31.28241       38.50322       75.10489
C         32.28086       37.39150       74.85214
O         32.11931       36.29095       75.36267
C         30.13352       38.09125       76.03494
H         30.89240       39.94903       73.60462
H         31.80917       39.35240       75.59594
H         30.53818       37.79182       77.02541
H         29.44950       38.95366       76.18592
H         29.55173       37.24535       75.61490
N         33.31128       37.61059       73.98679
C         34.20657       36.54482       73.54835
C         35.38322       37.07261       72.74685
O         35.44229       38.25427       72.43413
C         33.42922       35.53221       72.68718
H         33.42752       38.56553       73.61577
H         34.62827       36.05362       74.45220
H         32.58250       35.08586       73.24529
H         33.01842       36.04069       71.78653
H         34.08312       34.70039       72.35454
N         36.41005       36.22597       72.43639
C         37.63043       36.62941       71.74512
C         38.43508       37.66482       72.53426
O         39.44033       38.12800       72.01322
C         37.33206       37.11250       70.30457
C         36.59476       36.04046       69.48152
C         36.41191       36.43468       68.03966
O         36.89062       37.60321       67.56792
O         35.83306       35.67591       67.27886
H         36.34297       35.23984       72.73035
H         38.28642       35.73560       71.64389
H         38.30403       37.32688       69.80687
H         36.73628       38.04959       70.30961
H         35.59373       35.85753       69.92861
H         37.17469       35.09238       69.50515
N         38.08591       38.05347       73.79950
C         38.80845       39.04835       74.56390
H         39.66255       39.47983       74.00316
H         38.11357       39.87239       74.83227
H         39.19039       38.58648       75.49821
H         37.28064       37.63082       74.27778
Ca        32.32571       38.39384       65.33238
O         33.96615       38.84025       67.91466
H         34.58354       39.00560       67.15823
H         34.23049       39.50354       68.60031
O         31.18480       36.09214       67.61556
H         30.26626       35.76925       67.79605
H         31.72944       35.72268       68.35522
O         30.79803       38.17995       62.81183
H         30.31894       37.46730       62.32040
H         31.71259       38.17725       62.43260
O         30.79474       39.48863       68.25000
H         29.95203       40.00583       68.29672
H         30.50108       38.54557       68.28971
O         32.54131       35.57051       64.81915
H         31.82560       34.88693       64.82797
H         33.37341       35.06543       64.64027
O         34.68695       38.67641       63.55865
H         34.56007       37.71784       63.77317
H         34.91817       39.09578       64.42565

Ca 1.0



