%chk=apoCaM-CA-Ng.loop1.water1.frame865.chk
%nprocshared=20
%mem=10GB
%nosave
#b3lyp/svp scf=(tight,noincore,xqc) Test 
#IOP(5/87=12) Density=Current Pop=(MK,readradii) iop(6/33=2) iop(6/42=6)

apoCaM-CA-Ng.loop1.water1.frame865 

   0  1 
C         38.28946       30.74389      108.64174
C         37.49990       30.30375      107.44492
O         38.00194       29.48491      106.68752
H         39.23535       31.21838      108.30491
H         37.72552       31.47521      109.25678
H         38.53233       29.86088      109.26937
N         36.24435       30.79044      107.21373
C         35.43577       30.38035      106.06345
C         36.01159       30.90011      104.70996
O         37.38111       31.16815      104.76480
C         33.97248       30.85453      106.22985
C         33.78843       32.35353      106.32309
O         34.73587       33.12101      106.24827
O         32.55175       32.85292      106.50714
H         35.83832       31.43136      107.91254
H         35.42111       29.26810      106.06413
H         33.56751       30.40624      107.16352
H         33.36516       30.47885      105.37902
N         35.62538       30.07202      103.53479
C         36.59054       30.13834      102.40522
C         36.58400       31.46524      101.63626
O         37.48558       31.65566      100.83200
C         36.38917       28.95771      101.42383
C         35.02974       28.96884      100.70661
C         34.98344       27.87323       99.63162
C         33.67247       27.92323       98.83656
N         33.69375       26.96117       97.73434
H         35.60104       29.07548      103.85279
H         37.61695       29.98701      102.80615
H         36.50559       27.99267      101.96665
H         37.19911       29.00597      100.66284
H         34.89190       29.94872      100.20245
H         34.20791       28.82666      101.44262
H         35.10296       26.86981      100.09745
H         35.82678       28.03904       98.92573
H         33.53569       28.94394       98.41491
H         32.81577       27.70329       99.51150
H         33.80902       25.98884       98.10101
H         32.79336       27.02406       97.20661
H         34.47914       27.18605       97.08014
N         35.59516       32.39872      101.77342
C         35.56817       33.64769      100.99726
C         36.73395       34.60014      101.42041
O         36.60966       35.01396      102.74787
C         34.15036       34.27421      101.01675
C         33.52378       34.44243      102.37775
O         32.50922       33.82032      102.65361
O         34.04360       35.28554      103.28630
H         34.81022       32.18120      102.40298
H         35.73706       33.38046       99.93324
H         33.49744       33.57909      100.44106
H         34.14370       35.24501      100.48201
N         36.96957       35.80565      100.59922
C         36.81198       35.74688       99.13555
C         37.59283       34.65870       98.43844
O         38.24233       33.85063       99.08625
H         37.93502       36.14656      100.81819
H         37.12973       36.72748       98.71854
H         35.74003       35.62341       98.88356
N         37.52343       34.57055       97.07818
C         38.06156       33.44233       96.32299
C         39.17782       33.82204       95.37163
O         39.39019       34.99665       95.10403
C         36.90696       32.75464       95.54972
C         36.22659       33.60901       94.49418
O         36.63106       34.86580       94.22075
O         35.28944       33.14412       93.86606
H         37.00728       35.30721       96.57533
H         38.49407       32.70216       97.02935
H         36.13554       32.44278       96.28629
H         37.28964       31.84170       95.04692
N         39.92775       32.82861       94.80628
C         40.91988       33.04834       93.76824
C         42.07284       33.95126       94.13957
O         42.80341       34.30842       93.22493
H         39.74070       31.85150       95.07805
H         40.39282       33.51362       92.90790
H         41.33296       32.07460       93.42595
N         42.30219       34.39369       95.41145
C         43.27856       35.44137       95.69763
C         42.56694       36.65044       96.26492
O         41.38519       36.57799       96.57977
C         44.44257       34.95561       96.59860
C         44.00307       34.49593       97.98987
O         45.12139       33.90155       95.96700
H         41.72605       34.03945       96.18938
H         43.74501       35.79029       94.75024
H         45.15329       35.80097       96.76148
H         45.71359       34.31043       95.28173
H         43.32685       33.61976       97.92292
H         44.89964       34.20232       98.57847
H         43.49053       35.31748       98.53218
N         43.23108       37.82876       96.35942
C         42.62041       39.06321       96.82939
C         42.53372       40.02551       95.65831
O         41.45710       40.54187       95.39603
C         43.42825       39.66325       98.01270
C         43.69728       38.58409       99.09515
C         42.65656       40.86350       98.60415
C         44.58914       39.07176      100.23683
H         44.21477       37.85381       96.05204
H         41.58725       38.87125       97.20131
H         44.41286       40.01120       97.62897
H         44.23996       37.73433       98.62949
H         42.73922       38.19857       99.50705
H         41.67881       40.52728       99.01581
H         43.22772       41.35910       99.41283
H         42.46230       41.63408       97.82976
H         44.80081       38.22483      100.92292
H         45.55362       39.44833       99.83365
H         44.09650       39.86928      100.82696
N         43.62541       40.25667       94.86915
C         43.61172       41.13974       93.71114
C         44.76715       42.11624       93.79641
O         45.75835       41.84043       94.45844
C         43.72738       40.31612       92.40318
C         42.53102       39.37688       92.22013
O         43.78654       41.18298       91.29783
H         44.50229       39.75546       95.06664
H         42.66252       41.71886       93.67702
H         44.66352       39.70926       92.45865
H         44.29532       40.71391       90.58537
H         41.58903       39.96419       92.16452
H         42.64492       38.80469       91.27474
H         42.46028       38.65281       93.05802
N         44.70399       43.27888       93.09550
C         45.79001       44.24125       93.02155
C         45.35331       45.52897       93.69933
O         46.00533       45.93349       94.65285
C         46.21337       44.39143       91.53741
C         47.39303       45.34055       91.34333
O         45.13992       44.83041       90.74258
H         43.83818       43.48741       92.57639
H         46.68480       43.86530       93.56914
H         46.56153       43.38753       91.18772
H         44.77722       44.03748       90.26604
H         47.67309       45.36252       90.26780
H         47.12562       46.36843       91.65784
H         48.27008       44.99392       91.92878
N         44.24129       46.20463       93.29017
C         43.74188       47.41011       93.94157
C         42.31971       47.20072       94.41201
O         41.45701       46.89278       93.59981
C         43.75113       48.59361       92.96885
C         45.17581       49.02851       92.60919
C         45.19556       50.26655       91.70331
C         44.59175       49.99849       90.31567
N         44.69015       51.18529       89.46957
H         43.70747       45.84630       92.48531
H         44.37169       47.68797       94.81607
H         43.24973       49.45857       93.45867
H         43.17194       48.31329       92.06435
H         45.72498       48.19854       92.12026
H         45.70645       49.29055       93.55156
H         46.25526       50.57453       91.57396
H         44.65097       51.10003       92.20038
H         43.52140       49.71663       90.40271
H         45.13953       49.15784       89.83468
H         45.69250       51.45744       89.34817
H         44.28050       50.96962       88.53220
H         44.15718       51.97595       89.89964
N         42.00266       47.39419       95.72131
C         40.64421       47.34537       96.23859
C         40.38857       46.04912       97.00711
O         39.47177       45.34773       96.60221
C         40.34466       48.64630       97.01837
C         38.90810       48.70389       97.55737
C         38.64716       50.01129       98.25156
O         38.72397       51.06254       97.63503
O         38.31588       50.02919       99.55679
H         42.75783       47.65097       96.37018
H         39.92320       47.34198       95.38837
H         40.50054       49.50193       96.32322
H         41.05131       48.77967       97.85879
H         38.75167       47.87314       98.27858
H         38.18306       48.59235       96.72280
N         41.09620       45.60471       98.08834
C         42.24103       46.25298       98.68686
H         43.08294       46.29817       97.97176
H         41.97644       47.25325       99.07255
H         42.59694       45.64898       99.54756
H         40.80427       44.71002       98.51230
Ca        37.28080       33.28374      104.01566
O         39.53436       33.77641      105.75226
H         39.08565       34.55992      106.15900
H         39.72577       33.17410      106.51386

Ca 1.0



