%chk=apoCaM-CA-Ng.loop2.water5.frame197.chk
%nprocshared=20
%mem=10GB
%nosave
#b3lyp/svp scf=(tight,noincore,xqc) Test 
#IOP(5/87=12) Density=Current Pop=(MK,readradii) iop(6/33=2) iop(6/42=6)

apoCaM-CA-Ng.loop2.water5.frame197 

   -2  1 
C         17.26082       24.23450       25.91954
C         18.74015       24.26890       25.67643
O         19.13872       24.40728       24.52875
H         16.81565       23.38327       25.36164
H         17.02798       24.11061       26.99759
H         16.80496       25.18122       25.56202
N         19.61895       24.12702       26.71022
C         21.06708       24.11770       26.53119
C         21.60433       22.73706       26.85754
O         20.89569       21.94167       27.46139
C         21.69083       25.21309       27.42144
C         23.17919       25.34415       27.26386
O         23.65978       25.65161       26.18470
O         23.98958       25.14020       28.32026
H         19.24730       23.98762       27.66317
H         21.31440       24.32271       25.46673
H         21.45452       24.98911       28.48545
H         21.23264       26.19350       27.16779
N         22.83873       22.35448       26.41907
C         23.37210       21.01851       26.65668
C         22.54406       19.91902       25.99629
O         22.81898       18.76067       26.27873
C         24.82227       20.92745       26.16712
H         23.41292       23.03302       25.89749
H         23.36997       20.84742       27.75648
H         25.25085       19.92887       26.39824
H         24.87097       21.09489       25.06940
H         25.44218       21.69652       26.67534
N         21.52015       20.18574       25.12580
C         20.66246       19.14771       24.56502
C         19.23468       19.39427       25.03162
O         18.31792       19.48456       24.22579
C         20.79630       19.13170       23.02891
C         22.21677       18.87158       22.60705
O         22.82956       17.72557       22.96084
O         22.82127       19.69778       21.94193
H         21.31161       21.15585       24.85156
H         20.95420       18.14539       24.94786
H         20.46226       20.11130       22.61907
H         20.15136       18.33395       22.60202
N         18.99672       19.54712       26.36297
C         17.69322       19.82631       26.93566
C         16.94660       18.54994       27.21277
O         17.51675       17.68151       27.85917
H         19.79793       19.52482       27.01183
H         17.12660       20.56724       26.32981
H         17.86141       20.29244       27.93048
N         15.64777       18.38616       26.82456
C         14.87136       17.19318       27.16300
C         14.34983       16.52723       25.89870
O         14.37542       17.13364       24.83763
C         13.77982       17.60772       28.18201
C         13.01635       16.47980       28.83978
N         12.09017       15.76230       28.16680
O         13.21063       16.24082       30.02255
H         15.17570       19.15498       26.32284
H         15.53183       16.45498       27.66810
H         13.07040       18.33635       27.73618
H         14.31933       18.13742       28.99789
H         11.87431       15.97030       27.18620
H         11.56860       15.00770       28.63678
N         13.94946       15.22721       25.92493
C         13.50962       14.50105       24.74735
C         12.17922       14.99463       24.22211
O         11.20520       14.96315       24.95993
H         14.01638       14.70293       26.81031
H         13.36894       13.43369       25.02430
H         14.30129       14.53995       23.96799
N         12.04587       15.38294       22.92085
C         10.74113       15.69148       22.32633
C         10.10420       16.97427       22.85824
O          8.93939       17.19844       22.54837
C         10.80379       15.70721       20.77346
C         11.67502       16.82949       20.18719
O         11.20741       14.45151       20.28193
H         12.88251       15.34884       22.32232
H         10.06059       14.85157       22.59404
H          9.77215       15.87736       20.39383
H         12.18671       14.36152       20.41135
H         11.64042       16.78599       19.07826
H         11.28788       17.81548       20.49990
H         12.73252       16.74058       20.50940
N         10.77890       17.86270       23.64294
C         10.16924       19.05858       24.22428
C         10.25516       18.98898       25.74282
O         10.76947       18.00638       26.26479
C         10.76098       20.39368       23.64560
C         12.23129       20.74732       24.00999
C         10.49927       20.51573       22.13844
C         13.34143       20.02254       23.24355
H         11.75891       17.66511       23.87430
H          9.08296       19.09118       23.98333
H         10.16008       21.20800       24.09914
H         12.38495       20.62757       25.10318
H         12.37362       21.82687       23.77953
H         10.81064       21.51741       21.77252
H         11.05666       19.74511       21.57809
H          9.41630       20.39155       21.92345
H         14.32415       20.41626       23.57949
H         13.34945       18.94046       23.41708
H         13.25990       20.21381       22.15384
N          9.80086       20.00721       26.52340
C          9.93786       20.03502       27.97195
C          8.61200       20.41630       28.65530
O          8.58997       20.54925       29.86681
C         11.12037       20.98613       28.27364
C         11.56312       21.00708       29.70711
O         12.77387       20.53999       30.07705
O         10.84150       21.49290       30.55973
H          9.42727       20.85649       26.07275
H         10.24317       19.03655       28.35935
H         10.88783       22.02079       27.94021
H         11.98953       20.62640       27.67924
N          7.44332       20.55553       27.95466
C          6.18972       20.93987       28.59958
C          6.22224       22.42786       28.94626
O          6.45811       23.19838       28.02791
C          4.99605       20.72513       27.63482
C          3.69054       21.01151       28.34338
C          3.21506       20.12676       29.32735
C          2.95492       22.17342       28.05271
C          2.02833       20.40258       30.01181
C          1.77310       22.45047       28.74820
C          1.31017       21.56585       29.72608
H          7.42260       20.35006       26.94741
H          6.02764       20.27697       29.47299
H          4.97031       19.68381       27.24669
H          5.12130       21.39690       26.75618
H          3.76596       19.22533       29.56513
H          3.30682       22.87541       27.30757
H          1.66935       19.71671       30.76854
H          1.21851       23.35474       28.53334
H          0.39639       21.78246       30.26421
N          5.91033       22.94261       30.18032
C          5.70349       24.37231       30.39145
C          6.91985       25.25684       30.19981
O          6.74413       26.46476       30.11394
C          5.20724       24.46451       31.83688
C          4.46646       23.15132       31.98736
C          5.43812       22.18245       31.31800
H          4.90057       24.67920       29.68174
H          6.07968       24.41661       32.52985
H          4.62094       25.38004       32.06619
H          4.19299       22.88281       33.02939
H          3.53796       23.20804       31.37289
H          6.30294       21.97478       31.98565
H          4.90483       21.24726       31.07080
N          8.18589       24.75027       30.19804
C          9.36322       25.60721       30.08055
C          9.60785       26.06568       28.64402
O         10.52950       26.84412       28.43819
C         10.61630       24.88045       30.60618
C         10.53848       24.57351       32.11883
C         11.78820       23.86379       32.55726
O         12.88255       24.35855       32.33634
O         11.71837       22.63571       33.10418
H          8.31708       23.74079       30.36299
H          9.22357       26.50795       30.71959
H         11.50236       25.53379       30.44567
H         10.76780       23.95029       30.01943
H          9.65836       23.93219       32.34162
H         10.43846       25.52327       32.68551
N          8.85416       25.62695       27.59607
C          9.11207       26.04226       26.23407
H          9.00880       27.14411       26.14459
H         10.13705       25.73754       25.93253
H          8.38484       25.55905       25.54649
H          8.08249       24.97016       27.74845
Ca        13.17550       21.19981       32.18350
O         11.92626       20.03385       34.81120
H         10.98020       20.16713       34.55186
H         11.89843       19.32906       35.50537
O         15.10259       20.24806       34.50740
H         15.56003       19.38327       34.35614
H         15.83144       20.88003       34.73055
O         15.83291       19.92890       30.37292
H         16.80217       19.72830       30.35286
H         15.64923       20.35654       29.49889
O         15.92531       22.75122       31.89341
H         16.40516       21.97967       32.28672
H         16.26094       23.53467       32.39677
O         13.11913       17.97143       32.64497
H         13.88999       17.41766       32.92709
H         12.34503       17.58143       33.12363

Ca 1.0



