%chk=apoCaM-CA-Ng.loop2.water4.frame1205.chk
%nprocshared=20
%mem=10GB
%nosave
#b3lyp/svp scf=(tight,noincore,xqc) Test 
#IOP(5/87=12) Density=Current Pop=(MK,readradii) iop(6/33=2) iop(6/42=6)

apoCaM-CA-Ng.loop2.water4.frame1205 

   -2  1 
C          9.32520       89.64582       99.64610
C          8.29358       88.84938       98.89933
O          7.14891       89.27634       98.85848
H         10.13780       89.94950       98.95263
H          8.87087       90.56546      100.07276
H          9.74223       89.04139      100.47759
N          8.58751       87.68856       98.24923
C          9.90734       87.06645       98.19656
C          9.86904       85.63372       98.70356
O          8.88636       84.94436       98.49320
C         10.52481       87.18030       96.78345
C          9.72070       86.68584       95.60028
O         10.19798       86.80897       94.48347
O          8.47297       86.18770       95.71933
H          7.81675       87.23115       97.74284
H         10.62618       87.60772       98.84548
H         11.51106       86.66447       96.78991
H         10.71663       88.26015       96.59823
N         10.93029       85.12879       99.40102
C         11.03592       83.77387       99.94429
C         11.17893       82.66796       98.89474
O         11.39985       81.54043       99.31274
C          9.87852       83.46872      100.91312
H         11.72719       85.75656       99.58847
H         11.97527       83.74177      100.54173
H         10.03972       82.49029      101.41443
H          9.81722       84.25192      101.69817
H          8.90405       83.41412      100.38609
N         11.08969       82.88615       97.54389
C         11.21707       81.82479       96.53417
C         11.08704       82.39007       95.11574
O         10.09422       83.01679       94.79689
C         10.21165       80.66204       96.76130
C          8.78415       81.07774       97.01867
O          8.25679       80.77795       98.07820
O          8.07107       81.74959       96.09543
H         10.92448       83.84205       97.20508
H         12.23066       81.37217       96.61696
H         10.54858       80.07285       97.64013
H         10.25783       79.96292       95.89899
N         12.06463       82.18650       94.19193
C         12.01378       82.72249       92.83726
C         10.82732       82.22441       92.02562
O         10.64007       81.02171       91.91372
H         12.89756       81.63947       94.45661
H         12.93699       82.40877       92.30614
H         12.01539       83.83384       92.88102
N         10.02389       83.11807       91.37467
C          8.91118       82.76315       90.48880
C          9.21612       83.21085       89.06101
O         10.29573       83.73471       88.81450
C          7.62206       83.41896       91.02490
C          7.18391       82.76462       92.30944
N          6.74192       81.48486       92.30794
O          7.20918       83.39353       93.35401
H         10.23404       84.12385       91.47568
H          8.76705       81.66185       90.43739
H          6.77655       83.32322       90.31263
H          7.81221       84.50511       91.17330
H          6.68866       80.94747       91.42991
H          6.42951       81.03622       93.18145
N          8.32248       82.99698       88.04932
C          8.65226       83.31174       86.66131
C          7.51483       83.05707       85.68103
O          6.41061       82.75332       86.11240
H          7.41464       82.56428       88.27568
H          9.51428       82.67019       86.38228
H          8.94171       84.38107       86.57198
N          7.68017       83.13730       84.32452
C          8.94773       83.39869       83.63831
C          8.86794       84.59408       82.68931
O          9.85067       84.84990       82.00401
C          9.35898       82.13720       82.83599
C          9.47386       80.89818       83.72786
O          8.42836       81.87277       81.81565
H          6.86066       82.93127       83.73053
H          9.76005       83.61063       84.36165
H         10.37258       82.30267       82.39628
H          8.74376       82.34776       81.00205
H          9.81092       80.03087       83.12184
H         10.20986       81.07012       84.54087
H          8.49001       80.64347       84.17689
N          7.75577       85.37755       82.59061
C          7.63349       86.47965       81.63477
C          6.46289       87.37250       82.06078
O          5.36154       86.85084       82.17020
C          7.47845       85.93213       80.17006
C          7.33626       87.05089       79.10189
C          6.29072       84.96009       80.03018
C          8.59204       87.90189       78.91843
H          6.96950       85.20272       83.23357
H          8.57380       87.04239       81.67155
H          8.38477       85.33868       79.91901
H          6.46943       87.70493       79.34105
H          7.14000       86.58177       78.11261
H          6.27382       84.52973       79.00577
H          6.38862       84.11464       80.74261
H          5.31818       85.46533       80.19087
H          9.44722       87.26235       78.61503
H          8.41260       88.65219       78.11921
H          8.86087       88.44671       79.83637
N          6.56139       88.70427       82.35864
C          7.73904       89.56246       82.26662
C          7.52634       90.66417       81.23181
O          8.43930       91.46542       81.07050
C          8.06557       90.15872       83.65368
C          8.44557       89.12675       84.68876
O          8.48538       87.93602       84.42039
O          8.76854       89.53057       85.93154
H          5.69925       89.17064       82.67207
H          8.64268       89.03045       81.94718
H          7.19590       90.73805       84.02663
H          8.93137       90.85035       83.55789
N          6.38432       90.77619       80.47766
C          6.22368       91.81758       79.46494
C          4.81049       91.80998       78.86722
O          4.39198       90.74116       78.43767
C          7.22369       91.61786       78.29703
C          7.37591       92.91191       77.53804
C          6.82090       93.09167       76.26152
C          8.08118       93.97150       78.13868
C          6.96296       94.32047       75.60436
C          8.23127       95.18902       77.47483
C          7.66937       95.36579       76.20936
H          5.60330       90.12202       80.62904
H          6.44909       92.77495       79.95816
H          6.87008       90.78478       77.64934
H          8.23950       91.33217       78.63642
H          6.26426       92.29416       75.78643
H          8.51913       93.84926       79.12236
H          6.52365       94.46564       74.62650
H          8.78069       95.99467       77.94513
H          7.78154       96.31388       75.69989
N          4.03444       92.93374       78.71149
C          4.42206       94.29938       79.03496
C          4.65038       94.49794       80.51017
O          5.74448       94.89311       80.89023
C          3.25651       95.15916       78.51463
C          2.76172       94.32447       77.35107
C          2.79357       92.92785       77.96258
H          5.33155       94.54450       78.44749
H          2.41802       95.18181       79.24422
H          3.52987       96.20904       78.27577
H          1.77359       94.62622       76.94298
H          3.52175       94.37363       76.53758
H          1.94877       92.79428       78.67498
H          2.75130       92.15664       77.16279
N          3.65610       94.23421       81.40397
C          3.83983       94.32668       82.83991
C          3.04505       95.51337       83.35607
O          1.82364       95.46291       83.31379
C          3.36681       93.01847       83.50874
C          4.13316       91.78873       83.00426
C          3.56231       90.53330       83.60025
O          3.56583       90.35162       84.93436
O          3.09292       89.66945       82.87567
H          2.72731       93.94819       81.05793
H          4.91361       94.45656       83.07666
H          2.28658       92.87196       83.28056
H          3.48427       93.09923       84.61153
H          5.20628       91.87640       83.27344
H          4.05316       91.72411       81.89757
N          3.63785       96.64720       83.82961
C          5.06903       96.86858       83.83586
H          5.57976       96.11881       84.47490
H          5.46165       96.81518       82.79723
H          5.29399       97.88030       84.23341
H          3.03626       97.41488       84.16564
Ca         8.12671       84.00539       96.14289
O          6.31711       83.14659       98.40850
H          6.04539       82.21162       98.22965
H          5.94688       83.34605       99.30399
O          4.98774       83.26051       95.55415
H          4.68391       82.52819       94.96149
H          4.19896       83.47004       96.11467
O          6.13700       85.98162       93.67776
H          6.72583       85.93099       92.88402
H          5.48668       86.69354       93.45728
O          5.49857       86.13898       96.79051
H          4.56065       85.87268       96.96076
H          5.42967       86.89729       96.15777

Ca 1.0



