%chk=apoCaM-CA-Ng.loop1.water4.frame157.chk
%nprocshared=20
%mem=10GB
%nosave
#b3lyp/svp scf=(tight,noincore,xqc) Test 
#IOP(5/87=12) Density=Current Pop=(MK,readradii) iop(6/33=2) iop(6/42=6)

apoCaM-CA-Ng.loop1.water4.frame157 

   0  1 
C         79.04874       61.11754       27.80105
C         78.81348       61.43963       26.35967
O         78.69074       60.52232       25.56213
H         80.01345       61.56003       28.12506
H         78.22330       61.53468       28.41366
H         79.09013       60.01729       27.95211
N         78.75087       62.73812       25.95121
C         78.54388       63.12121       24.55952
C         79.77363       63.82614       24.01594
O         79.66460       64.89131       23.42511
C         77.22208       63.91072       24.41200
C         77.14032       65.20496       25.18376
O         76.10225       65.84121       25.15732
O         78.17891       65.67804       25.89954
H         78.87496       63.47524       26.65978
H         78.43602       62.21403       23.93082
H         76.39479       63.25461       24.76120
H         77.04586       64.13457       23.34085
N         80.99977       63.25294       24.18865
C         82.23577       63.78762       23.63319
C         83.05454       62.63595       23.05880
O         83.42684       61.77359       23.84293
C         83.03605       64.51179       24.73235
C         84.32452       65.11945       24.15509
C         85.10444       65.92694       25.19465
C         86.35455       66.59284       24.58976
N         87.36563       65.61918       24.16963
H         81.06088       62.39666       24.76029
H         82.00586       64.55859       22.88113
H         83.28211       63.81116       25.56050
H         82.40297       65.32871       25.14454
H         84.05502       65.80159       23.32153
H         84.95988       64.29968       23.76347
H         85.39559       65.28061       26.05083
H         84.43924       66.73318       25.57374
H         86.80215       67.25627       25.36129
H         86.05984       67.22766       23.72390
H         87.66456       65.03823       24.98603
H         87.00730       65.00263       23.40800
H         88.19733       66.13400       23.80052
N         83.41335       62.50099       21.74741
C         83.04553       63.35470       20.62583
C         83.62698       64.75711       20.74369
O         82.85976       65.70502       20.84344
C         81.51348       63.33400       20.37099
C         80.97268       61.93032       20.31450
O         79.96248       61.54355       21.10845
O         81.44739       61.11382       19.54881
H         83.98453       61.67481       21.50683
H         83.49634       62.91542       19.71940
H         81.32201       63.83818       19.39835
H         80.94352       63.88414       21.14067
N         84.96961       65.01441       20.70974
C         86.01069       64.01356       20.46884
C         87.41488       64.62027       20.48548
O         87.55231       65.79780       20.78715
H         85.24103       66.00339       20.81786
H         85.83468       63.55446       19.47810
H         85.96562       63.22509       21.24833
N         88.54321       63.89949       20.21256
C         88.57625       62.50441       19.77618
C         88.14234       62.37845       18.32048
O         87.92123       63.38473       17.65970
C         90.02727       61.96015       19.87828
C         90.59117       61.97528       21.27534
O         89.85942       62.40324       22.32291
O         91.73263       61.58593       21.46328
H         89.44633       64.38722       20.33087
H         87.92142       61.89267       20.43442
H         90.69015       62.57018       19.22381
H         90.07125       60.90886       19.52379
N         88.05733       61.14569       17.73885
C         87.80609       60.93623       16.32109
C         86.43349       61.35084       15.83369
O         86.18579       61.18626       14.64902
H         88.24839       60.30984       18.31173
H         87.91053       59.85006       16.10200
H         88.58176       61.47479       15.73582
N         85.48086       61.85625       16.66798
C         84.12947       62.18237       16.23211
C         83.82251       63.64398       16.53173
O         84.13181       64.10462       17.61798
C         83.12829       61.28558       16.98017
C         83.43492       59.79128       16.85871
O         81.83511       61.52021       16.47853
H         85.68387       61.96637       17.66923
H         83.98789       61.98328       15.14754
H         83.20677       61.53224       18.05403
H         81.25921       61.81452       17.22837
H         84.43561       59.55888       17.28191
H         82.68391       59.21376       17.44007
H         83.40007       59.46764       15.79848
N         83.12343       64.40187       15.63876
C         82.70206       65.78214       15.91623
C         81.20916       65.88736       16.19057
O         80.75633       66.97879       16.51684
C         83.10326       66.76624       14.77422
C         82.21547       66.73547       13.48911
C         84.59633       66.65590       14.44012
C         82.14876       65.42940       12.69792
H         82.83084       63.94166       14.77397
H         83.20761       66.13071       16.84390
H         82.95208       67.79208       15.18237
H         82.59238       67.52513       12.80403
H         81.17149       67.01474       13.75062
H         84.87848       67.43754       13.70250
H         85.20282       66.81416       15.35719
H         84.84223       65.66096       14.01622
H         81.56741       65.60035       11.76779
H         83.16167       65.07534       12.41763
H         81.59242       64.65230       13.25473
N         80.37647       64.81821       16.06355
C         78.93300       64.91428       16.22230
C         78.54460       64.73430       17.68063
O         78.87515       63.72068       18.27907
C         78.18759       63.98193       15.22762
C         78.48475       62.48681       15.37760
O         78.50654       64.35620       13.91103
H         80.77189       63.91169       15.79206
H         78.60694       65.93244       15.91101
H         77.09081       64.10426       15.39071
H         77.96744       65.16294       13.69882
H         78.22829       62.13967       16.39177
H         77.87033       61.91582       14.64951
H         79.54443       62.24719       15.16091
N         77.83331       65.71165       18.31173
C         77.44523       65.69241       19.71757
C         75.93447       65.59883       19.81709
O         75.24336       66.35180       19.14183
C         77.94832       66.98351       20.41472
C         79.47754       67.10380       20.38588
O         77.49443       67.04819       21.74420
H         77.53813       66.53427       17.76202
H         77.89179       64.82198       20.25003
H         77.52785       67.86311       19.87913
H         77.81340       66.23468       22.21257
H         79.94523       66.24898       20.91812
H         79.85167       67.12476       19.34115
H         79.78793       68.04578       20.88632
N         75.35441       64.71861       20.68378
C         73.91050       64.55632       20.82934
C         73.47684       63.09894       20.72964
O         72.28444       62.84771       20.83106
C         73.45437       65.06144       22.21335
C         73.80823       66.52848       22.46737
C         73.21998       66.99211       23.80976
C         73.49727       68.47352       24.11144
N         74.91900       68.75183       24.32321
H         75.96942       64.17550       21.30741
H         73.37374       65.13913       20.04764
H         73.91407       64.43469       23.01088
H         72.34783       64.95325       22.27650
H         73.38655       67.15551       21.65207
H         74.91168       66.62893       22.47130
H         73.60284       66.36237       24.64117
H         72.11624       66.86057       23.76610
H         72.94359       68.74547       25.03728
H         73.10762       69.10223       23.28123
H         75.03507       69.76745       24.54005
H         75.27271       68.20244       25.13804
H         75.47994       68.53493       23.46985
N         74.37060       62.07615       20.58763
C         73.97261       60.68463       20.73850
C         73.76068       60.42485       22.22244
O         74.70163       60.57759       22.98876
C         75.06335       59.77618       20.13595
C         74.72808       58.28334       20.21299
C         75.81635       57.47737       19.56194
O         75.56822       56.77459       18.59551
O         77.07378       57.52774       20.04113
H         75.37234       62.27330       20.46654
H         73.04121       60.49925       20.15829
H         76.03207       59.96514       20.64214
H         75.17681       60.05407       19.06391
H         73.76136       58.09504       19.69623
H         74.63421       57.96410       21.27251
N         72.54083       60.07189       22.71065
C         72.31503       59.88334       24.12984
H         71.25290       59.61908       24.31665
H         72.96166       59.06762       24.51793
H         72.54423       60.82342       24.67831
H         71.74572       59.95508       22.06598
Ca        79.34609       59.39949       20.75390
O         77.49138       59.66326       22.78909
H         77.31709       60.61918       22.59748
H         77.17547       59.52575       23.71506
O         79.57363       56.79248       22.07255
H         80.51579       56.49010       22.03903
H         79.04065       55.97578       21.90375
O         77.98779       60.18512       18.39480
H         78.35612       61.09960       18.48355
H         77.62171       60.14048       17.47703
O         80.63076       59.52459       23.30036
H         81.40380       60.13079       23.41050
H         80.54059       59.06761       24.17281

Ca 1.0



