%chk=apoCaM-CA-Ng.loop1.water1.frame905.chk
%nprocshared=20
%mem=10GB
%nosave
#b3lyp/svp scf=(tight,noincore,xqc) Test 
#IOP(5/87=12) Density=Current Pop=(MK,readradii) iop(6/33=2) iop(6/42=6)

apoCaM-CA-Ng.loop1.water1.frame905 

   0  1 
C         91.65391       16.08545       22.00519
C         90.57278       16.85758       22.71116
O         90.88631       17.69647       23.54295
H         92.27719       15.54586       22.74791
H         91.22746       15.33772       21.30193
H         92.29540       16.78080       21.42444
N         89.26540       16.63632       22.40644
C         88.15550       17.35335       23.02919
C         88.05117       17.06803       24.53219
O         87.88787       15.92219       24.92310
C         86.82699       17.03372       22.29834
C         86.43660       15.57184       22.24909
O         87.25281       14.61200       22.73413
O         85.34789       15.26039       21.79400
H         89.05988       15.95242       21.66255
H         88.32308       18.44401       22.88616
H         86.89010       17.40851       21.25337
H         86.01903       17.60050       22.81191
N         88.14900       18.08305       25.44027
C         88.08177       17.86801       26.88534
C         86.68956       17.43260       27.32806
O         85.72269       18.12224       27.03491
C         88.48382       19.15015       27.65182
C         88.69508       18.86195       29.15619
C         89.24582       20.06827       29.93736
C         88.27609       21.25436       30.08091
N         87.10104       20.91251       30.88590
H         88.32298       19.03813       25.09195
H         88.84346       17.10008       27.14983
H         87.72542       19.94657       27.49267
H         89.45535       19.50527       27.24389
H         89.45720       18.05603       29.23843
H         87.76626       18.48347       29.63051
H         90.17346       20.41778       29.43385
H         89.52916       19.73152       30.95866
H         87.96211       21.63210       29.08509
H         88.82335       22.07691       30.59312
H         86.51888       20.18875       30.40908
H         87.39861       20.56718       31.82789
H         86.51760       21.77013       31.01636
N         86.53906       16.33790       28.12498
C         85.25656       15.92858       28.71211
C         85.44485       14.93878       29.85885
O         86.52458       14.38277       29.99861
C         84.24721       15.42893       27.64499
C         84.87817       14.79396       26.43675
O         85.63790       13.68395       26.49688
O         84.71671       15.32938       25.35065
H         87.39751       15.83161       28.38618
H         84.83332       16.81958       29.22683
H         83.69856       16.32107       27.27257
H         83.49125       14.74198       28.07922
N         84.49083       14.74113       30.82129
C         83.15426       15.32790       30.85711
C         83.02263       16.38040       31.93257
O         84.02153       16.78854       32.50309
H         84.74379       14.14276       31.62193
H         82.43096       14.50597       31.04441
H         82.86683       15.81921       29.91093
N         81.79587       16.90768       32.21695
C         81.58345       17.99033       33.17600
C         81.97388       17.56153       34.58548
O         81.19669       16.86672       35.22717
C         80.08944       18.42481       33.13640
C         79.71920       19.58093       34.03052
O         80.55392       20.15345       34.71265
O         78.43542       19.98691       34.07801
H         80.98495       16.54320       31.69252
H         82.20874       18.85369       32.85564
H         79.45661       17.55551       33.42486
H         79.81938       18.70593       32.09566
N         83.16911       17.93536       35.13337
C         83.52638       17.63077       36.51329
C         84.42056       16.41653       36.67019
O         84.67515       16.04310       37.80490
H         83.85200       18.45006       34.55554
H         82.60837       17.41581       37.09871
H         83.99087       18.52834       36.97720
N         84.92668       15.74262       35.59956
C         85.71513       14.51596       35.70736
C         85.13734       13.43185       34.80098
O         84.17728       13.68533       34.08787
C         87.20205       14.81377       35.38386
C         87.42144       15.47587       34.01858
O         87.71861       15.65626       36.38341
H         84.75995       16.11252       34.65947
H         85.68196       14.11680       36.74458
H         87.75508       13.84563       35.39465
H         88.64353       15.35192       36.58028
H         88.51007       15.61389       33.84717
H         87.00926       14.85152       33.20111
H         86.94634       16.47912       33.98686
N         85.70054       12.18754       34.77351
C         85.27459       11.14695       33.83976
C         84.07849       10.38553       34.38060
O         83.27605        9.92186       33.57868
C         86.45425       10.19475       33.47436
C         87.73504       10.96363       33.04001
C         86.04783        9.17998       32.38592
C         87.55434       11.90814       31.84935
H         86.49967       11.99322       35.39196
H         84.96215       11.63959       32.89166
H         86.73003        9.61394       34.38276
H         88.53181       10.22814       32.79585
H         88.11382       11.56838       33.88974
H         85.72883        9.69364       31.45501
H         86.90014        8.50844       32.14968
H         85.21331        8.53614       32.72983
H         86.81791       12.70017       32.08861
H         88.52189       12.40536       31.62744
H         87.22837       11.36190       30.94220
N         83.86369       10.25123       35.72248
C         82.69140        9.58159       36.27630
C         83.09649        8.49621       37.26333
O         84.27135        8.37691       37.59403
C         81.78705       10.64314       36.95169
C         81.37383       11.73299       35.95829
O         80.61739       10.05006       37.45579
H         84.52898       10.68073       36.38486
H         82.10926        9.08900       35.46530
H         82.37209       11.12478       37.77332
H         80.51954       10.33335       38.40197
H         80.81543       11.28499       35.10806
H         80.72412       12.47618       36.46424
H         82.26151       12.26870       35.56323
N         82.15311        7.65040       37.76198
C         82.41757        6.60545       38.73980
C         82.22184        5.25046       38.08330
O         83.13527        4.43962       38.11028
C         81.55754        6.82241       40.02472
C         80.03791        6.67795       39.85575
O         81.81175        8.10722       40.53468
H         81.18888        7.73897       37.41178
H         83.47611        6.65486       39.08394
H         81.84509        6.05512       40.78290
H         82.61155        8.04061       41.11800
H         79.76209        5.63965       39.58220
H         79.53314        6.88972       40.82241
H         79.64250        7.38997       39.10206
N         81.05286        4.95451       37.44853
C         80.75688        3.68292       36.81410
C         80.33489        3.91099       35.37277
O         79.44879        4.71879       35.12996
C         79.61336        3.01366       37.59996
C         79.16681        1.68832       36.96361
C         78.05587        1.03026       37.78843
C         77.53096       -0.26890       37.15405
N         76.86787       -0.03402       35.86789
H         80.30566        5.66074       37.42435
H         81.62660        2.98986       36.85176
H         78.73934        3.70073       37.64793
H         79.96609        2.82554       38.63856
H         80.03159        0.99329       36.88496
H         78.78682        1.90614       35.94620
H         77.20707        1.73727       37.91486
H         78.46282        0.79154       38.79551
H         76.79232       -0.71435       37.85602
H         78.36328       -0.99546       37.02402
H         76.44608       -0.93035       35.53479
H         76.10594        0.67435       35.97815
H         77.54964        0.28550       35.14438
N         80.84161        3.12683       34.37899
C         80.29967        3.14813       33.02568
C         80.64683        4.43412       32.28246
O         79.71229        5.13307       31.91640
C         80.67197        1.85320       32.26482
C         79.98835        1.76113       30.89349
C         80.22415        0.41223       30.27648
O         79.77514       -0.69829       30.89401
O         80.80804        0.31450       29.20951
H         81.52913        2.40000       34.62953
H         79.18941        3.09180       33.11924
H         80.31767        1.00221       32.88958
H         81.76425        1.73426       32.13110
H         80.38385        2.56055       30.22932
H         78.89138        1.90108       31.00262
N         81.91391        4.84908       31.98417
C         83.14525        4.18376       32.35449
H         83.77582        4.88783       32.93563
H         82.99438        3.29106       32.97988
H         83.69352        3.89150       31.43392
H         82.01842        5.72308       31.44511
Ca        86.49521       13.34441       24.43428
O         89.72732       12.73822       25.60584
H         90.49786       13.06023       25.07367
H         89.68121       11.76786       25.41350

Ca 1.0



