%chk=apoCaM-CA-Ng.loop2.water3.frame306.chk
%nprocshared=20
%mem=10GB
%nosave
#b3lyp/svp scf=(tight,noincore,xqc) Test 
#IOP(5/87=12) Density=Current Pop=(MK,readradii) iop(6/33=2) iop(6/42=6)

apoCaM-CA-Ng.loop2.water3.frame306 

   -2  1 
C         60.18965       77.12194       27.32808
C         59.63697       78.25879       28.13294
O         58.62408       78.08241       28.79441
H         61.22120       76.89079       27.66647
H         59.56217       76.21207       27.44664
H         60.20904       77.40511       26.25644
N         60.26727       79.46749       28.13328
C         59.77658       80.60660       28.90034
C         58.42508       81.03767       28.36253
O         58.34717       81.44433       27.21061
C         60.78290       81.77244       28.83236
C         60.35277       82.93160       29.68740
O         60.15646       84.02659       29.18541
O         60.19151       82.76849       31.01466
H         61.13544       79.56536       27.58352
H         59.69373       80.29138       29.96484
H         60.90411       82.10139       27.77573
H         61.77204       81.42280       29.19877
N         57.30710       80.93561       29.13678
C         55.97166       81.25721       28.64435
C         55.67119       80.42574       27.41817
O         55.35236       80.98607       26.37924
C         54.91873       80.98931       29.72770
H         57.40739       80.57485       30.09839
H         55.92129       82.33792       28.38258
H         53.90610       81.24382       29.34704
H         54.92349       79.92192       30.03655
H         55.12529       81.61605       30.62073
N         55.80963       79.07121       27.46938
C         55.62323       78.17663       26.33931
C         54.17548       78.21281       25.88892
O         53.88845       78.46757       24.72697
C         56.66247       78.47955       25.22994
C         56.69126       77.45959       24.12250
O         57.47949       77.60026       23.20157
O         55.87368       76.38809       24.13489
H         56.08764       78.63966       28.36343
H         55.82692       77.14294       26.70100
H         57.67456       78.49251       25.69083
H         56.47314       79.47765       24.78422
N         53.20486       77.93151       26.80102
C         51.79089       77.83647       26.49041
C         51.26395       76.43709       26.75041
O         50.07240       76.23193       26.56945
H         53.48518       77.74411       27.77630
H         51.58950       78.08506       25.42511
H         51.24055       78.56537       27.12177
N         52.09233       75.41355       27.12584
C         51.66159       74.03266       27.28257
C         52.09716       73.49911       28.63865
O         53.28747       73.50847       28.92344
C         52.31798       73.21759       26.15053
C         51.90998       71.76677       26.08758
N         52.44322       70.97082       25.13348
O         51.10138       71.30372       26.87874
H         53.10158       75.58488       27.23601
H         50.55775       73.94863       27.17069
H         53.42448       73.27390       26.25501
H         52.04121       73.68347       25.17946
H         53.12547       71.34831       24.45892
H         52.17630       69.97799       25.06818
N         51.19002       72.99276       29.52172
C         51.57991       72.41681       30.80188
C         52.37262       71.13126       30.64373
O         52.57922       70.67112       29.52857
H         50.18629       73.01782       29.28579
H         50.66498       72.16871       31.38303
H         52.16469       73.16404       31.38032
N         52.82554       70.47484       31.75220
C         53.51679       69.18322       31.68850
C         54.87701       69.24236       30.98679
O         55.46100       68.18696       30.78437
C         53.66525       68.54283       33.09967
C         54.62969       69.29223       34.03620
O         52.40242       68.37463       33.69941
H         52.60787       70.88927       32.67009
H         52.86626       68.49661       31.10140
H         54.09322       67.52405       32.97279
H         52.13907       69.22793       34.13209
H         54.68195       68.77063       35.01509
H         55.64912       69.29292       33.60812
H         54.30500       70.33927       34.20706
N         55.44432       70.41928       30.59057
C         56.72672       70.51532       29.90219
C         56.49151       71.06481       28.51029
O         55.89811       72.12470       28.36680
C         57.71157       71.41086       30.71850
C         58.09487       70.77258       32.07961
C         58.98542       71.76915       29.92688
C         58.89139       69.46076       31.98802
H         54.95558       71.30636       30.77237
H         57.19797       69.52003       29.77979
H         57.19965       72.37499       30.93659
H         57.17498       70.59397       32.66473
H         58.71021       71.49932       32.65308
H         59.53103       70.86288       29.59323
H         58.72843       72.36954       29.03258
H         59.65982       72.39622       30.54846
H         58.32095       68.66402       31.47122
H         59.85850       69.61393       31.46584
H         59.12050       69.09684       33.01097
N         57.02361       70.41115       27.43819
C         56.99712       70.93128       26.07990
C         56.66967       69.81669       25.06843
O         56.81114       70.03984       23.87452
C         58.38879       71.56127       25.84918
C         58.49012       72.53021       24.70601
O         57.42188       72.86420       23.96073
O         59.55300       73.09599       24.50528
H         57.60952       69.57936       27.61319
H         56.24980       71.75069       25.99223
H         59.15451       70.76839       25.77271
H         58.63988       72.17594       26.73878
N         56.20466       68.59389       25.47802
C         55.93368       67.46894       24.58148
C         57.23693       66.87804       24.06476
O         58.09605       66.58987       24.88804
C         55.14845       66.36842       25.34075
C         54.79655       65.20262       24.44091
C         53.54628       65.15257       23.80151
C         55.72146       64.16519       24.21671
C         53.23293       64.09155       22.94559
C         55.40169       63.10395       23.36477
C         54.15962       63.06875       22.72704
H         56.00330       68.44912       26.47773
H         55.26441       67.80364       23.76108
H         54.20873       66.83060       25.71606
H         55.69776       65.99913       26.23543
H         52.82085       65.94177       23.95296
H         56.68981       64.17633       24.70054
H         52.27238       64.06437       22.44788
H         56.11839       62.31020       23.19643
H         53.91550       62.24933       22.06321
N         57.44614       66.57624       22.74342
C         58.63403       65.87949       22.27565
C         59.84455       66.78956       22.20047
O         60.93640       66.28628       21.97530
C         58.21172       65.34223       20.90672
C         57.29282       66.44332       20.41381
C         56.49035       66.77414       21.67264
H         58.87588       65.01886       22.93936
H         59.04481       65.05699       20.22878
H         57.57127       64.44481       21.06996
H         57.93327       67.31980       20.16487
H         56.67373       66.19331       19.52647
H         56.11527       67.81722       21.60434
H         55.64763       66.06421       21.81821
N         59.73575       68.13575       22.37282
C         60.88955       69.01956       22.41789
C         61.67695       68.71806       23.67479
O         62.86209       68.42954       23.58572
C         60.43754       70.49342       22.39187
C         59.78804       70.84022       21.04017
C         59.33282       72.26617       20.99031
O         60.21518       73.26908       21.16417
O         58.16163       72.52273       20.76255
H         58.80226       68.55327       22.49472
H         61.53444       68.86347       21.52328
H         61.32328       71.15141       22.53408
H         59.72325       70.67734       23.21888
H         58.91543       70.17863       20.85002
H         60.52799       70.68282       20.22667
N         61.05980       68.73208       24.88777
C         61.75466       68.42775       26.11797
H         62.57345       69.15899       26.28284
H         61.04750       68.48376       26.97348
H         62.17348       67.40005       26.07153
H         60.05314       68.94065       24.93713
Ca        57.68342       74.62365       22.57286
O         59.56664       76.57357       20.81031
H         59.69284       77.52975       20.58630
H         59.31584       76.14691       19.95283
O         56.12105       75.43960       20.21389
H         55.68743       76.32832       20.17078
H         55.51921       74.89729       20.78372
O         60.35924       76.19479       23.79872
H         60.31745       77.17181       23.64253
H         61.28685       76.03237       24.10435

Ca 1.0



