%chk=apoCaM-CA-Ng.loop1.water4.frame134.chk
%nprocshared=20
%mem=10GB
%nosave
#b3lyp/svp scf=(tight,noincore,xqc) Test 
#IOP(5/87=12) Density=Current Pop=(MK,readradii) iop(6/33=2) iop(6/42=6)

apoCaM-CA-Ng.loop1.water4.frame134 

   0  1 
C         43.26252       61.34710      -23.54509
C         41.82592       60.91533      -23.54913
O         41.46807       60.00840      -24.28731
H         43.86008       60.74973      -24.26512
H         43.32648       62.41940      -23.82738
H         43.68853       61.21597      -22.52777
N         40.93829       61.53467      -22.72477
C         39.52684       61.16793      -22.63254
C         38.70801       61.46013      -23.89951
O         37.52328       61.16876      -23.87506
C         38.87862       61.82794      -21.38866
C         38.75694       63.32811      -21.44769
O         37.54117       63.90161      -21.37062
O         39.74823       64.03543      -21.51894
H         41.31253       62.25581      -22.09070
H         39.47746       60.07183      -22.44245
H         39.45929       61.54671      -20.48258
H         37.86330       61.40896      -21.26463
N         39.24691       62.00565      -25.03342
C         38.48683       62.28486      -26.25606
C         38.60931       61.13462      -27.24495
O         39.73902       60.74602      -27.51086
C         39.07078       63.52577      -26.96813
C         39.09813       64.86492      -26.20901
C         37.72326       65.47402      -25.89163
C         37.10535       64.97356      -24.57771
N         35.80087       65.59469      -24.35543
H         40.25094       62.22444      -25.05636
H         37.43192       62.47543      -26.04053
H         38.50800       63.68456      -27.91561
H         40.12603       63.30373      -27.24773
H         39.58838       65.56519      -26.92164
H         39.73903       64.82591      -25.30171
H         37.04117       65.33006      -26.75827
H         37.86893       66.56808      -25.75550
H         37.78887       65.24044      -23.74200
H         36.97829       63.88194      -24.55875
H         35.88881       66.63667      -24.35113
H         35.13682       65.29962      -25.10833
H         35.42578       65.28316      -23.43114
N         37.56045       60.56209      -27.92017
C         36.12373       60.83109      -27.81214
C         35.73302       62.29096      -28.06307
O         35.18110       62.91227      -27.16338
C         35.55242       60.32380      -26.47566
C         35.91515       58.90233      -26.16318
O         36.51352       58.66069      -25.12654
O         35.56687       57.87679      -26.96719
H         37.81050       59.83876      -28.61394
H         35.61993       60.22870      -28.58980
H         34.44659       60.41524      -26.50204
H         35.90413       60.95672      -25.64836
N         35.93967       62.94002      -29.24254
C         36.54757       62.35379      -30.42504
C         36.81414       63.44365      -31.44384
O         37.47465       64.40060      -31.06192
H         35.64822       63.93091      -29.28288
H         35.91527       61.53201      -30.81961
H         37.53944       61.94154      -30.14798
N         36.42137       63.41893      -32.75205
C         35.71661       62.33849      -33.44534
C         34.23817       62.25051      -33.07534
O         33.76857       63.03585      -32.26281
C         35.85719       62.54271      -34.98235
C         35.06937       63.71254      -35.52965
O         35.31868       64.97112      -35.12146
O         34.20054       63.51932      -36.36531
H         36.75187       64.21402      -33.31939
H         36.22983       61.38081      -33.21156
H         35.52039       61.62334      -35.50546
H         36.93108       62.67137      -35.23818
N         33.42382       61.35369      -33.71426
C         31.98095       61.33124      -33.53673
C         31.54813       60.85325      -32.17492
O         30.39739       61.07197      -31.82325
H         33.82164       60.71560      -34.41810
H         31.51054       60.66030      -34.28892
H         31.59273       62.35633      -33.72116
N         32.38130       60.12966      -31.37805
C         31.98578       59.66794      -30.05602
C         31.91898       60.85970      -29.12720
O         32.91101       61.56612      -29.01462
C         32.99510       58.63751      -29.49753
C         33.07739       57.37969      -30.36663
O         32.60137       58.24618      -28.20697
H         33.31933       59.88474      -31.72730
H         31.00258       59.14791      -30.11269
H         34.01298       59.07633      -29.47441
H         33.00687       58.88482      -27.56625
H         33.80973       56.67131      -29.92432
H         32.08676       56.88029      -30.41944
H         33.41531       57.61856      -31.39570
N         30.80029       61.11384      -28.39223
C         30.72932       62.20205      -27.42028
C         30.75834       61.67613      -25.99070
O         30.84508       62.48914      -25.07988
C         29.53041       63.15461      -27.72824
C         28.11844       62.50199      -27.72613
C         29.75431       63.81849      -29.09942
C         27.65033       61.96916      -26.37280
H         29.99466       60.47761      -28.48428
H         31.65151       62.82178      -27.48262
H         29.53327       63.97308      -26.97410
H         28.05478       61.69214      -28.48326
H         27.38207       63.28358      -28.01731
H         30.72667       64.35502      -29.11805
H         29.74877       63.06258      -29.91345
H         28.95447       64.56140      -29.30723
H         27.68307       62.77501      -25.60916
H         26.60243       61.61287      -26.46426
H         28.25301       61.10714      -26.03865
N         30.71056       60.33955      -25.70570
C         30.80635       59.82078      -24.34678
C         32.23284       59.96951      -23.86235
O         33.11855       59.40470      -24.48893
C         30.41543       58.32242      -24.28662
C         28.96724       58.09292      -24.73590
O         30.55701       57.86855      -22.96377
H         30.59646       59.66134      -26.47042
H         30.09556       60.37169      -23.68967
H         31.09928       57.74933      -24.95815
H         30.65252       56.88134      -23.00430
H         28.26665       58.65599      -24.08351
H         28.81386       58.41147      -25.78712
H         28.72487       57.01125      -24.67038
N         32.53075       60.69339      -22.74763
C         33.89092       60.80678      -22.22436
C         33.97556       60.24908      -20.81236
O         32.94762       59.95726      -20.21486
C         34.37249       62.28053      -22.28978
C         33.54444       63.24209      -21.42779
O         34.32144       62.73156      -23.61782
H         31.76373       61.16539      -22.24530
H         34.59025       60.20360      -22.84402
H         35.41940       62.34118      -21.91207
H         35.16153       62.44017      -24.05302
H         33.96569       64.26730      -21.50630
H         32.49052       63.28394      -21.77254
H         33.56916       62.93985      -20.36018
N         35.19182       60.08642      -20.21485
C         35.36499       59.69376      -18.82023
C         36.11484       58.37241      -18.65378
O         36.27081       57.94202      -17.52002
C         36.08890       60.86515      -18.11050
C         36.25048       60.75099      -16.58014
C         34.93790       60.52186      -15.80803
C         33.89329       61.62359      -16.04815
N         32.68735       61.37647      -15.25990
H         36.03576       60.30174      -20.76183
H         34.36936       59.55543      -18.35168
H         35.52065       61.79581      -18.32310
H         37.09777       61.00006      -18.56055
H         36.72380       61.68910      -16.21717
H         36.95275       59.92926      -16.33207
H         35.18287       60.48575      -14.72442
H         34.50573       59.53665      -16.08237
H         33.60977       61.65446      -17.12223
H         34.32281       62.61041      -15.76750
H         32.26570       60.45741      -15.52843
H         32.91812       61.37550      -14.24003
H         31.99326       62.13465      -15.45110
N         36.58196       57.64281      -19.70996
C         37.30606       56.38118      -19.51347
C         38.64100       56.62828      -18.82679
O         39.03251       57.77418      -18.64321
C         37.51401       55.66162      -20.86544
C         36.16486       55.19607      -21.43856
C         36.26871       54.79117      -22.87522
O         35.89725       53.69311      -23.25580
O         36.64367       55.73302      -23.75566
H         36.41154       57.97718      -20.66921
H         36.69994       55.71719      -18.85671
H         38.16066       54.76352      -20.75791
H         38.02148       56.37156      -21.55622
H         35.43813       56.03431      -21.42350
H         35.75048       54.37562      -20.81262
N         39.38553       55.57773      -18.38658
C         40.64167       55.76413      -17.69306
H         41.36842       56.28189      -18.35378
H         40.48086       56.36815      -16.77389
H         41.06194       54.77932      -17.39815
H         39.04050       54.61574      -18.52410
Ca        35.97338       55.94162      -25.88951
O         33.08793       55.55829      -27.35785
H         32.92689       54.77745      -27.94451
H         32.18343       55.84914      -27.07834
O         33.46244       56.38239      -23.71816
H         33.21359       56.31288      -22.76254
H         34.17762       57.06642      -23.73727
O         38.83722       55.83441      -26.93222
H         38.33202       56.41457      -27.55597
H         38.78106       56.30005      -26.05993
O         33.32357       53.53586      -25.12746
H         33.34481       53.28178      -24.17118
H         32.41153       53.89564      -25.26495

Ca 1.0



