%chk=apoCaM-CA-Ng.loop1.water4.frame285.chk
%nprocshared=20
%mem=10GB
%nosave
#b3lyp/svp scf=(tight,noincore,xqc) Test 
#IOP(5/87=12) Density=Current Pop=(MK,readradii) iop(6/33=2) iop(6/42=6)

apoCaM-CA-Ng.loop1.water4.frame285 

   0  1 
C         54.32975       33.76908       62.36985
C         55.06043       35.00778       62.79598
O         56.17094       35.24547       62.34258
H         53.37314       34.05502       61.88156
H         54.93390       33.17654       61.65184
H         54.10569       33.14384       63.25954
N         54.46528       35.86486       63.66593
C         55.05819       37.12754       64.09132
C         56.26316       36.97396       65.02145
O         56.72017       38.00287       65.47363
C         53.98952       37.99508       64.80750
C         52.81767       38.30373       63.91544
O         51.57632       37.92882       64.27788
O         52.98286       38.91095       62.86890
H         53.51027       35.63457       63.98437
H         55.37604       37.70111       63.19388
H         54.43191       38.97036       65.10971
H         53.63694       37.47600       65.72550
N         56.84616       35.78954       65.37529
C         57.90042       35.71600       66.39722
C         59.25783       35.33321       65.83132
O         59.28629       34.44748       64.98841
C         57.51439       34.68688       67.47248
C         56.26143       35.10157       68.25060
C         56.08597       34.19925       69.47567
C         54.86454       34.60914       70.30272
N         54.78512       33.81733       71.52973
H         56.52131       34.90794       64.95611
H         58.00833       36.68197       66.90517
H         58.35597       34.60922       68.19067
H         57.37294       33.67849       67.02420
H         55.36969       35.05671       67.58769
H         56.38519       36.14594       68.61168
H         56.99325       34.29639       70.11334
H         55.98511       33.13796       69.15940
H         53.94246       34.46147       69.69806
H         54.94062       35.68590       70.57427
H         55.63024       33.99424       72.12131
H         53.93478       34.10090       72.06715
H         54.72373       32.79860       71.30177
N         60.45870       35.83986       66.28739
C         60.70736       36.86246       67.32201
C         60.12099       36.50030       68.68259
O         59.04012       36.96681       69.01123
C         60.36869       38.29115       66.84726
C         61.24588       38.70222       65.69606
O         62.26628       37.91222       65.29996
O         61.03408       39.75355       65.11631
H         61.30906       35.43373       65.86569
H         61.80179       36.92796       67.48125
H         60.53417       39.02216       67.66669
H         59.31231       38.34999       66.53251
N         60.78685       35.71386       69.57876
C         62.14617       35.23941       69.35903
C         62.71021       34.43536       70.51787
O         61.97989       34.11464       71.44417
H         60.31344       35.50726       70.47112
H         62.78948       36.13994       69.26150
H         62.19953       34.62991       68.43096
N         64.03598       34.11069       70.58882
C         65.03285       34.50676       69.59429
C         65.82167       35.70188       70.09121
O         65.68264       36.07732       71.24874
C         65.93600       33.31225       69.20711
C         66.79356       32.75562       70.32328
O         67.51753       31.79966       70.09699
O         66.79227       33.29489       71.55839
H         64.35935       33.63867       71.44638
H         64.53035       34.84121       68.66548
H         66.61619       33.62168       68.38461
H         65.28673       32.49589       68.82338
N         66.64162       36.38871       69.24504
C         67.40568       37.54776       69.67617
C         66.55360       38.72138       70.13441
O         67.13243       39.65702       70.66830
H         66.74207       36.07232       68.26843
H         68.06279       37.89866       68.85071
H         68.05783       37.22868       70.51750
N         65.19794       38.76882       69.95368
C         64.36191       39.86281       70.44106
C         63.26190       39.30248       71.32229
O         62.49533       38.46430       70.86559
C         63.74182       40.65760       69.27315
C         64.82845       41.28811       68.39687
O         62.93728       41.68174       69.80360
H         64.72611       38.01211       69.43767
H         64.96505       40.58785       71.03220
H         63.11999       39.96661       68.65589
H         62.30022       41.95111       69.09217
H         65.46744       40.50394       67.94045
H         64.35789       41.87844       67.58329
H         65.46667       41.96957       68.99971
N         63.10705       39.75462       72.59743
C         62.03528       39.30350       73.48106
C         60.68320       39.62807       72.85867
O         59.83399       38.74798       72.82533
C         62.15983       39.92947       74.91157
C         63.51355       39.52273       75.56691
C         60.98104       39.46808       75.80152
C         63.74881       40.12739       76.95420
H         63.76141       40.47490       72.93579
H         62.11004       38.19981       73.61622
H         62.11550       41.03803       74.82491
H         64.35766       39.86371       74.93565
H         63.57773       38.41539       75.64697
H         60.99334       38.36326       75.92367
H         61.01520       39.94107       76.80237
H         60.00566       39.76638       75.36593
H         63.01668       39.75029       77.69594
H         64.75751       39.83453       77.31526
H         63.69603       41.23542       76.90768
N         60.42042       40.86216       72.33250
C         59.10400       41.22762       71.80566
C         58.98423       40.97259       70.31010
O         59.97578       40.69132       69.65367
C         58.70266       42.66440       72.22575
C         59.61976       43.75043       71.64633
O         58.71613       42.76963       73.62606
H         61.18906       41.54472       72.28974
H         58.35329       40.54362       72.26024
H         57.67714       42.88377       71.84673
H         57.86690       42.37304       73.95379
H         60.66029       43.65334       72.01735
H         59.62618       43.71061       70.53722
H         59.25238       44.75095       71.95908
N         57.74085       40.93008       69.74211
C         57.49652       40.43035       68.38780
C         57.87437       41.42335       67.29004
O         58.20391       42.56539       67.58418
C         56.02679       39.93949       68.24281
C         54.98061       41.05772       68.32670
O         55.76982       38.97712       69.23565
H         56.93616       41.08879       70.36566
H         58.12330       39.52230       68.25902
H         55.92012       39.46738       67.24551
H         55.04753       38.38624       68.89581
H         53.96784       40.62128       68.18840
H         55.00396       41.56870       69.30972
H         55.14433       41.80483       67.52302
N         57.85701       41.02032       65.98281
C         58.16098       41.87695       64.83747
C         58.48429       41.13109       63.51501
O         58.67241       41.81454       62.52035
C         57.03402       42.92289       64.64230
C         55.67693       42.34204       64.19813
C         54.65523       43.48584       64.03825
C         53.30312       43.05387       63.44565
N         52.57576       42.12486       64.30950
H         57.61424       40.04968       65.82159
H         59.09253       42.43854       65.07070
H         57.36779       43.65353       63.87324
H         56.89249       43.48656       65.58872
H         55.31472       41.60678       64.94738
H         55.80229       41.82669       63.22120
H         55.08064       44.24104       63.34142
H         54.48921       43.97954       65.02117
H         53.45918       42.59624       62.44388
H         52.68328       43.96874       63.30751
H         53.10001       41.22809       64.40790
H         52.41797       42.55431       65.24970
H         51.64714       41.91915       63.87379
N         58.66533       39.77191       63.42671
C         59.10791       39.09723       62.20266
C         58.05097       39.12456       61.12305
O         56.95333       38.63140       61.34065
C         59.50470       37.63281       62.50928
C         60.01133       36.82282       61.29054
C         61.08063       37.49376       60.44759
O         60.86401       37.68990       59.26255
O         62.27350       37.86673       60.95705
H         58.59123       39.18859       64.26283
H         60.03409       39.59886       61.84679
H         58.64552       37.08280       62.95402
H         60.28660       37.65609       63.28412
H         59.14048       36.60970       60.63273
H         60.39280       35.84529       61.65776
N         58.34754       39.63242       59.89592
C         57.41056       39.58624       58.79669
H         56.49404       40.15704       59.05060
H         57.87442       40.02638       57.88833
H         57.14455       38.52952       58.57530
H         59.28240       40.03120       59.72131
Ca        62.69848       37.62686       63.13256
O         64.49569       40.11672       65.27059
H         65.21464       40.79660       65.30539
H         63.67836       40.60671       65.53841
O         65.51207       39.10897       61.36609
H         66.42798       39.44652       61.19962
H         64.99256       39.39996       60.57496
O         63.02097       40.74887       62.33374
H         62.33526       40.81340       61.62285
H         62.50140       40.72148       63.17498
O         66.65825       38.23449       64.23294
H         67.40155       38.73192       63.80792
H         67.02674       37.92904       65.09973

Ca 1.0



