%chk=apoCaM-CA-Ng.loop2.water3.frame330.chk
%nprocshared=20
%mem=10GB
%nosave
#b3lyp/svp scf=(tight,noincore,xqc) Test 
#IOP(5/87=12) Density=Current Pop=(MK,readradii) iop(6/33=2) iop(6/42=6)

apoCaM-CA-Ng.loop2.water3.frame330 

   -2  1 
C         55.26724       80.02124       72.42836
C         55.29184       81.28139       73.24047
O         55.00819       81.21844       74.42644
H         55.53549       80.21481       71.36865
H         55.98592       79.29007       72.85242
H         54.24490       79.58807       72.45837
N         55.63332       82.47050       72.67098
C         55.62712       83.72735       73.41150
C         54.21489       84.07228       73.86731
O         53.33040       84.20232       73.03170
C         56.25700       84.88614       72.59411
C         55.54981       85.24939       71.31174
O         55.04678       86.48842       71.15367
O         55.46822       84.45057       70.39300
H         55.92129       82.46658       71.68282
H         56.28523       83.60849       74.30096
H         57.30961       84.62411       72.35010
H         56.28250       85.78739       73.24613
N         53.94228       84.26253       75.19146
C         52.62168       84.65840       75.67694
C         51.57669       83.55520       75.56857
O         50.40165       83.86020       75.71918
C         52.71124       85.08958       77.14674
H         54.71992       84.19141       75.86599
H         52.29152       85.53992       75.08329
H         53.04379       84.23673       77.77899
H         53.44289       85.91812       77.25572
H         51.72505       85.44384       77.51540
N         51.92936       82.24417       75.41733
C         50.99004       81.12597       75.42834
C         50.19526       81.13855       76.72945
O         48.97136       81.15995       76.70548
C         50.11554       81.15045       74.15305
C         49.25793       79.92334       74.04229
O         48.04353       80.01964       73.96882
O         49.83254       78.70870       74.01685
H         52.92506       82.00431       75.36274
H         51.58852       80.18732       75.40474
H         50.78141       81.17530       73.26334
H         49.47931       82.06143       74.13190
N         50.85701       81.21401       77.91901
C         50.16893       81.43223       79.17797
C         49.44290       80.22990       79.73400
O         48.73774       80.42398       80.71451
H         51.88730       81.25585       77.91638
H         49.45353       82.27393       79.04228
H         50.90142       81.74951       79.95066
N         49.59082       78.96419       79.23468
C         48.89870       77.81581       79.82160
C         49.86888       76.87235       80.51946
O         51.07693       77.04736       80.44143
C         48.05147       77.09943       78.75612
C         47.01967       78.03591       78.17536
N         47.02819       78.34672       76.85903
O         46.16811       78.52263       78.90508
H         50.22822       78.79646       78.44216
H         48.20929       78.15845       80.62497
H         47.51713       76.23403       79.20432
H         48.72183       76.71293       77.95801
H         47.73769       77.95074       76.22581
H         46.32391       78.99249       76.47239
N         49.36186       75.91026       81.33818
C         50.14915       75.10015       82.25121
C         50.90427       73.95604       81.61709
O         50.30427       73.18197       80.88486
H         48.33613       75.84090       81.42815
H         49.43184       74.60823       82.94431
H         50.79882       75.74470       82.88272
N         52.18057       73.68177       82.02187
C         52.82616       72.39581       81.75106
C         53.18868       72.16893       80.29376
O         53.22799       71.01266       79.89737
C         54.02869       72.11188       82.69124
C         55.21620       73.06484       82.50231
O         53.61191       72.09691       84.03585
H         52.62337       74.33253       82.68620
H         52.07733       71.61220       82.01414
H         54.40194       71.08881       82.46364
H         53.47033       73.03271       84.33291
H         54.93380       74.11727       82.70903
H         56.03862       72.77625       83.19026
H         55.59694       72.99167       81.47100
N         53.45500       73.19851       79.43756
C         53.70267       72.99354       78.01090
C         52.57095       73.65528       77.27182
O         52.37138       74.85202       77.43077
C         55.07264       73.56019       77.54387
C         56.27210       72.98588       78.33576
C         55.26878       73.32765       76.02934
C         56.44845       71.46502       78.26057
H         53.43008       74.16548       79.79460
H         53.69556       71.91027       77.76522
H         55.07679       74.65955       77.71633
H         56.16381       73.27486       79.39482
H         57.20513       73.46356       77.96569
H         56.24140       73.74616       75.69594
H         55.23797       72.24614       75.77977
H         54.47165       73.83040       75.44238
H         55.56826       70.93585       78.67488
H         56.62188       71.12983       77.21824
H         57.33240       71.17163       78.86471
N         51.75191       72.91118       76.48257
C         50.56577       73.46618       75.85099
C         49.66700       72.31697       75.40846
O         49.23987       72.25103       74.26466
C         50.98656       74.44365       74.72413
C         49.85292       75.22036       74.13096
O         48.70093       75.03747       74.49300
O         50.10251       76.13653       73.18009
H         51.93980       71.89946       76.40074
H         49.99631       74.01615       76.63373
H         51.51135       73.88028       73.92156
H         51.69571       75.19571       75.12212
N         49.39763       71.33211       76.31454
C         48.60629       70.13265       76.06120
C         49.03525       69.43713       74.76835
O         50.22105       69.19966       74.58795
C         48.77134       69.14748       77.24351
C         48.17987       69.67821       78.52945
C         49.00324       70.02108       79.61748
C         46.78652       69.81574       78.65524
C         48.43880       70.49953       80.80527
C         46.22684       70.28398       79.84777
C         47.05216       70.62827       80.92104
H         49.83046       71.42435       77.24655
H         47.54417       70.43300       75.98979
H         49.85827       68.94068       77.36808
H         48.27367       68.17856       77.02003
H         50.07974       69.92712       79.54609
H         46.13343       69.54599       77.83461
H         49.07578       70.76842       81.63820
H         45.15239       70.37698       79.94049
H         46.61666       70.99241       81.84282
N         48.11259       69.06289       73.82499
C         48.41465       68.41553       72.55314
C         49.36814       69.17563       71.65211
O         50.22700       68.55118       71.04551
C         47.04686       68.36532       71.85246
C         46.11032       68.16909       73.01208
C         46.67649       69.15838       74.02157
H         48.78392       67.38333       72.74888
H         46.79488       69.36323       71.42244
H         46.97477       67.60792       71.04308
H         45.03090       68.30345       72.78917
H         46.27231       67.13520       73.39668
H         46.35596       70.20517       73.82452
H         46.34503       68.81876       75.02751
N         49.22007       70.51785       71.46162
C         49.93186       71.27380       70.43459
C         51.43925       71.09899       70.50559
O         52.00751       70.62011       69.53334
C         49.58892       72.77721       70.49943
C         48.10937       73.10502       70.20570
C         47.92504       74.59173       70.27115
O         48.59878       75.32272       69.56148
O         47.13025       75.13756       71.20634
H         48.52298       71.00678       72.04115
H         49.60315       70.89354       69.44097
H         50.20849       73.29910       69.73572
H         49.86767       73.17853       71.50051
H         47.44546       72.62829       70.95674
H         47.82769       72.74302       69.19559
N         52.15626       71.48497       71.59717
C         53.60320       71.38681       71.66325
H         53.89571       70.73233       72.50914
H         54.04684       70.97151       70.73226
H         54.03295       72.39849       71.81983
H         51.66515       71.87844       72.41247
Ca        48.22870       76.81474       72.17568
O         49.30758       79.12729       70.57669
H         50.06414       79.13417       69.93823
H         48.84597       79.99039       70.42811
O         45.88189       77.52735       74.00702
H         45.30007       77.08992       73.33631
H         45.52174       78.44613       74.08684
O         45.96703       77.96491       70.74733
H         45.64028       77.43464       69.97793
H         45.89418       78.90751       70.45526

Ca 1.0



