%chk=apoCaM-CA-Ng.loop4.water3.frame251.chk
%nprocshared=20
%mem=10GB
%nosave
#b3lyp/svp scf=(tight,noincore,xqc) Test 
#IOP(5/87=12) Density=Current Pop=(MK,readradii) iop(6/33=2) iop(6/42=6)

apoCaM-CA-Ng.loop4.water3.frame251 

   -3  1 
C         28.41540       44.34880       15.75437
C         27.75481       45.34953       16.65114
O         28.45350       46.02101       17.39308
H         29.51658       44.35100       15.91051
H         28.02389       43.33421       15.97208
H         28.20852       44.60908       14.69546
N         26.40098       45.52262       16.61099
C         25.67330       46.50395       17.41042
C         26.16336       47.90476       17.08387
O         26.76618       48.55777       17.91567
C         25.56832       46.10214       18.90833
C         26.84252       45.91497       19.68137
O         27.65852       46.95319       19.92003
O         27.11873       44.81949       20.14448
H         25.85687       44.95590       15.94284
H         24.60668       46.49195       17.08959
H         25.01512       45.13659       18.93670
H         24.94479       46.85179       19.44185
N         25.91872       48.39090       15.82952
C         26.27788       49.69186       15.25685
C         25.48247       50.84653       15.87307
O         24.69237       51.43788       15.14896
C         27.81508       49.93440       15.15218
C         28.06341       51.14602       14.20128
C         28.50161       48.66822       14.59948
C         29.52741       51.49268       13.92132
H         25.41960       47.75738       15.18500
H         25.93264       49.63282       14.19691
H         28.23875       50.14179       16.15655
H         27.58191       52.05123       14.62892
H         27.59159       50.93678       13.21563
H         29.59398       48.79986       14.52688
H         28.34604       47.80802       15.27956
H         28.10559       48.40654       13.59576
H         29.56452       52.36078       13.23028
H         30.05231       51.77735       14.84664
H         30.06399       50.65855       13.42475
N         25.60034       51.22130       17.18080
C         24.76833       52.25944       17.77656
C         25.30120       53.64918       17.46842
O         24.54361       54.40956       16.88103
C         24.53575       52.02892       19.28558
C         23.71468       50.78867       19.53169
O         24.16481       49.57976       19.14830
O         22.62600       50.87596       20.07744
H         26.25679       50.73709       17.79637
H         23.74262       52.19551       17.34004
H         23.97094       52.89879       19.69085
H         25.48292       51.94416       19.84519
N         26.54620       54.11166       17.79585
C         27.61546       53.34250       18.43662
C         28.88887       54.16349       18.61372
O         28.88704       55.32593       18.23182
H         26.72966       55.08905       17.52421
H         27.84859       52.49027       17.77820
H         27.29271       53.00336       19.43409
N         30.05300       53.69726       19.16279
C         30.39692       52.38998       19.72971
C         30.34178       51.23806       18.69255
O         29.07244       50.67029       18.58451
C         29.68487       52.12897       21.08407
C         30.40614       51.15825       22.01917
O         30.47533       49.83047       21.78877
O         30.90121       51.58977       23.04814
H         30.82931       54.37974       19.18648
H         31.46603       52.48689       20.01726
H         28.62454       51.83805       20.94659
H         29.68775       53.10616       21.61594
N         30.81079       51.61980       17.36143
C         32.22101       52.02827       17.28570
C         32.32350       53.34574       16.56370
O         31.30529       53.92037       16.20028
H         30.67447       50.79582       16.73173
H         32.79576       51.26824       16.70948
H         32.70697       52.11768       18.27656
N         33.54848       53.86099       16.27349
C         33.72915       55.06195       15.46719
C         34.19815       54.69741       14.06821
O         34.27484       55.59484       13.23971
C         34.71493       56.03104       16.15514
C         34.22461       56.54605       17.52302
C         33.03172       57.47617       17.45482
N         32.52253       57.99695       18.59464
O         32.53124       57.78127       16.38210
H         34.38674       53.33222       16.56246
H         32.75592       55.57168       15.31178
H         34.91973       56.90836       15.50274
H         35.67666       55.49187       16.30410
H         35.05507       57.11647       17.99219
H         33.98768       55.68289       18.18136
H         32.93301       57.76124       19.50989
H         31.71764       58.64050       18.56237
N         34.48028       53.40673       13.71170
C         34.78697       52.99972       12.34621
C         36.21826       52.51070       12.19019
O         36.60094       52.25532       11.05661
C         33.76299       51.93065       11.85736
C         32.34069       52.50788       11.83829
C         33.78623       50.63829       12.69957
H         34.45357       52.66490       14.42131
H         34.70784       53.87580       11.66497
H         34.02309       51.65610       10.81117
H         31.62556       51.75562       11.44153
H         32.01819       52.79907       12.86062
H         32.29851       53.40305       11.18254
H         34.80287       50.19292       12.71100
H         33.46151       50.81798       13.74582
H         33.08987       49.89055       12.26433
N         37.07356       52.37159       13.24908
C         38.46899       51.97910       13.08441
C         38.74763       50.59522       13.64958
O         39.22277       49.76439       12.88616
C         39.45059       53.07153       13.58942
C         39.37148       53.56008       15.02157
N         40.28402       54.45653       15.46242
O         38.49936       53.18178       15.78398
H         36.73477       52.55294       14.20199
H         38.71470       51.89797       12.00108
H         39.31647       53.96990       12.94801
H         40.48069       52.68835       13.41713
H         41.03114       54.79661       14.83930
H         40.25056       54.80546       16.43189
N         38.50522       50.25849       14.94911
C         38.87742       48.96082       15.50928
C         37.66941       48.22762       16.04740
O         36.60666       48.82002       16.11833
C         39.88261       49.18427       16.65846
C         41.08501       49.97893       16.21446
C         41.94759       49.47894       15.22622
C         41.35129       51.23414       16.78819
C         43.05678       50.22438       14.81686
C         42.46043       51.97718       16.37774
C         43.31647       51.47711       15.39215
O         44.38283       52.20641       15.00771
H         38.06616       50.93693       15.58060
H         39.34054       48.31698       14.73135
H         40.22735       48.21410       17.07458
H         39.35810       49.73075       17.47498
H         41.76148       48.51359       14.77305
H         40.69949       51.64212       17.55116
H         43.71299       49.82699       14.05334
H         42.65311       52.94351       16.82672
H         45.00099       51.89563       14.33117
N         37.80714       46.94427       16.50364
C         36.79460       46.12375       17.17214
C         35.67032       45.62255       16.26978
O         35.54186       44.41358       16.12782
C         36.22382       46.81380       18.42997
C         37.32616       47.19985       19.42658
C         36.73535       47.82232       20.65813
O         37.03079       48.96423       20.97217
O         35.88356       47.11911       21.42913
H         38.74533       46.52072       16.43456
H         37.31855       45.20641       17.53038
H         35.52354       46.10572       18.92726
H         35.64615       47.72036       18.15220
H         38.02586       47.91992       18.94949
H         37.90022       46.29641       19.72492
N         34.76715       46.46758       15.69888
C         33.56234       46.01288       15.01351
C         33.84129       45.22098       13.74161
O         32.89607       44.66177       13.20175
C         32.63602       47.20848       14.65561
C         32.33191       48.21309       15.79152
C         31.70206       47.59297       17.00255
O         30.47211       47.97686       17.38565
O         32.31761       46.78271       17.67631
H         34.88042       47.46463       15.84419
H         33.02168       45.34555       15.72021
H         31.67243       46.80485       14.27201
H         33.11110       47.79183       13.83678
H         31.65417       48.98632       15.38042
H         33.23997       48.75986       16.11138
N         35.08590       45.14649       13.18501
C         35.36873       44.41127       11.96758
H         36.14396       43.64417       12.17263
H         34.47220       43.89914       11.55859
H         35.75039       45.11232       11.19610
H         35.87716       45.64408       13.61567
Ca        29.50977       49.02182       19.98086
O         28.70503       47.71310       22.94263
H         28.76111       48.57674       23.42390
H         29.10345       47.05598       23.56638
O         26.91145       49.69599       21.33382
H         26.41226       49.59181       20.48642
H         26.26828       49.42980       22.03711
O         30.71216       46.05772       20.45252
H         30.88314       46.13454       21.42470
H         31.55268       45.68837       20.08225

Ca 1.0



