%chk=apoCaM-CA-Ng.loop1.water5.frame658.chk
%nprocshared=20
%mem=10GB
%nosave
#b3lyp/svp scf=(tight,noincore,xqc) Test 
#IOP(5/87=12) Density=Current Pop=(MK,readradii) iop(6/33=2) iop(6/42=6)

apoCaM-CA-Ng.loop1.water5.frame658 

   0  1 
C         93.09741       20.54764       85.84471
C         92.05140       19.59427       86.33174
O         90.93545       19.62623       85.83215
H         93.96720       19.98242       85.45259
H         92.69157       21.19980       85.04235
H         93.42560       21.18957       86.69015
N         92.34247       18.73434       87.34656
C         91.35308       17.84977       87.94903
C         91.05761       18.32428       89.35798
O         91.63522       19.30982       89.79806
C         91.78821       16.36790       87.87557
C         92.98400       16.02664       88.71840
O         94.07343       16.52514       88.49093
O         92.85695       15.13319       89.71722
H         93.28921       18.76404       87.75360
H         90.39283       17.91718       87.39193
H         91.99162       16.09264       86.81839
H         90.94193       15.73370       88.21721
N         90.11170       17.70091       90.10794
C         89.65927       18.22743       91.39206
C         90.73451       18.17035       92.48840
O         90.44987       18.63980       93.58181
C         88.34221       17.53236       91.83406
C         87.21207       17.55419       90.76357
C         86.77534       18.94102       90.25110
C         86.03626       19.76916       91.31046
N         85.56295       21.03271       90.74498
H         89.64548       16.87887       89.70305
H         89.40530       19.30024       91.24957
H         87.96797       18.01832       92.76054
H         88.55719       16.46811       92.07298
H         86.32115       17.02542       91.16570
H         87.53165       16.97122       89.87827
H         86.07025       18.77525       89.40687
H         87.64315       19.50209       89.84297
H         86.70501       19.97877       92.17256
H         85.15761       19.19015       91.67038
H         86.37633       21.61223       90.45647
H         84.95023       20.86106       89.91450
H         85.01954       21.55787       91.46679
N         91.99327       17.66539       92.27674
C         93.04440       17.69713       93.29532
C         94.49784       17.78083       92.71596
O         94.63195       17.53677       91.35144
C         92.90127       16.51297       94.29096
C         92.60490       15.12125       93.73425
O         91.60055       14.55019       94.12760
O         93.39571       14.46147       92.85726
H         92.23366       17.27398       91.35963
H         92.92411       18.62693       93.88267
H         92.04961       16.76201       94.96175
H         93.80459       16.46601       94.93472
N         95.41745       18.85219       93.14311
C         95.35373       19.25555       94.55754
C         94.55557       20.52952       94.73519
O         94.46885       21.01050       95.85577
H         96.38187       18.49568       92.94771
H         96.38344       19.48608       94.91213
H         94.96500       18.44122       95.20226
N         93.96132       21.14335       93.67218
C         93.22608       22.39277       93.75269
C         91.80123       22.15782       93.31951
O         91.58123       21.49646       92.31291
C         93.86883       23.43295       92.81599
C         95.28736       23.73274       93.20860
O         95.56013       24.23805       94.42689
O         96.19797       23.52952       92.42170
H         94.03345       20.72371       92.73405
H         93.23343       22.81671       94.78185
H         93.28965       24.38151       92.86274
H         93.84057       23.06227       91.76649
N         90.77532       22.75087       93.98940
C         89.38874       22.64365       93.57125
C         89.09874       23.23407       92.19751
O         87.94094       23.18993       91.81568
H         90.98121       23.31838       94.82584
H         88.75345       23.18269       94.30787
H         89.08949       21.57302       93.57812
N         90.05984       23.81584       91.41225
C         89.80469       24.37051       90.08037
C         91.01311       25.10931       89.52132
O         92.12082       25.00827       90.03136
C         89.41161       23.28789       89.02080
C         90.47130       22.19028       88.88742
O         88.18588       22.69002       89.31647
H         91.00620       23.91704       91.79013
H         88.99381       25.12538       90.18343
H         89.32237       23.75638       88.01252
H         87.48078       23.33803       89.05204
H         91.45258       22.61394       88.58591
H         90.58743       21.65710       89.85117
H         90.16102       21.45878       88.11151
N         90.82650       25.87913       88.41739
C         91.87909       26.60778       87.72187
C         92.55876       27.53566       88.70557
O         93.77391       27.49510       88.82923
C         91.25812       27.40637       86.52387
C         90.61622       26.43960       85.48488
C         92.31142       28.30403       85.84232
C         89.76207       27.15560       84.43645
H         89.85741       25.97354       88.08224
H         92.63162       25.89477       87.31547
H         90.45959       28.06572       86.93202
H         89.92677       25.72700       85.97738
H         91.40622       25.83629       84.98814
H         92.74787       29.02455       86.56461
H         93.12910       27.68754       85.41304
H         91.85875       28.91586       85.03749
H         88.94841       27.72512       84.93624
H         90.36112       27.84308       83.80942
H         89.29688       26.40225       83.76610
N         91.80677       28.41548       89.41574
C         92.34681       29.42600       90.32182
C         91.30064       30.50247       90.58393
O         90.16929       30.39217       90.12807
C         92.92287       28.82734       91.64313
C         91.87854       28.06584       92.45952
O         93.99899       27.96587       91.38432
H         90.79378       28.39219       89.23163
H         93.16414       29.95830       89.78574
H         93.28961       29.65336       92.29554
H         94.78826       28.53883       91.19396
H         91.03723       28.73346       92.73895
H         91.48851       27.19928       91.88620
H         92.34660       27.68754       93.39469
N         91.65076       31.63188       91.24830
C         90.77776       32.79054       91.33793
C         91.45359       33.91446       90.58088
O         90.88488       34.41578       89.62098
C         90.44710       33.12384       92.81402
C         89.47065       34.30244       92.91345
O         91.61234       33.40567       93.54394
H         92.60595       31.70741       91.62799
H         89.80126       32.59076       90.84112
H         89.95360       32.22130       93.24528
H         91.38664       33.30155       94.50483
H         89.21392       34.49218       93.97682
H         89.91870       35.22513       92.48738
H         88.53244       34.06912       92.36552
N         92.68764       34.34562       90.96142
C         93.40821       35.43019       90.31148
C         94.87506       35.05674       90.13333
O         95.35120       34.17421       90.83583
C         93.20272       36.70103       91.16003
C         93.80391       36.58891       92.57890
C         93.23477       37.61083       93.56931
C         93.41142       39.06982       93.14405
N         92.90132       39.96298       94.18442
H         93.11780       33.91371       91.78802
H         92.96518       35.61834       89.30811
H         92.10109       36.84104       91.24345
H         93.62169       37.59191       90.64537
H         94.91051       36.66375       92.51305
H         93.55898       35.61079       93.03590
H         93.74080       37.44840       94.54623
H         92.14892       37.40781       93.70850
H         92.85020       39.25353       92.20156
H         94.48792       39.28236       92.96791
H         93.45139       39.83446       95.06506
H         92.99632       40.95350       93.86594
H         91.89149       39.76194       94.37193
N         95.65783       35.67371       89.20142
C         97.07135       35.33403       89.03294
C         97.27203       33.84180       88.75305
O         97.98139       33.22268       89.53392
C         97.77979       36.20661       87.97146
C         97.82875       37.68945       88.36840
C         98.62506       38.48232       87.37090
O         99.73999       39.12970       87.76101
O         98.26747       38.54602       86.20533
H         95.23312       36.39558       88.59992
H         97.59211       35.55252       89.99401
H         97.30039       36.11684       86.98110
H         98.83090       35.84899       87.88417
H         98.31105       37.78454       89.36561
H         96.80465       38.11259       88.43009
N         96.70039       33.15034       87.72310
C         95.79759       33.70256       86.73791
H         94.90193       34.13328       87.22863
H         96.30529       34.45428       86.11000
H         95.45741       32.89328       86.05679
H         96.90186       32.14010       87.65251
Ca        95.03313       15.39413       91.68801
O         96.43646       12.70904       92.16243
H         97.03791       13.14235       92.81866
H         95.60703       12.52422       92.67066
O         97.31374       14.01139       89.29785
H         97.36026       13.02354       89.25232
H         98.23924       14.29221       89.50921
O         96.98195       17.14547       89.34500
H         96.76039       17.73406       88.58029
H         97.96407       17.22300       89.44238
O         94.40238       12.58270       89.62946
H         93.62514       12.49584       89.02222
H         95.03390       11.88397       89.32487
O         98.07201       15.85313       92.45969
H         98.60145       15.27122       91.85864
H         98.11202       16.74748       92.03728

Ca 1.0



