%chk=apoCaM-CA-Ng.loop2.water3.frame514.chk
%nprocshared=20
%mem=10GB
%nosave
#b3lyp/svp scf=(tight,noincore,xqc) Test 
#IOP(5/87=12) Density=Current Pop=(MK,readradii) iop(6/33=2) iop(6/42=6)

apoCaM-CA-Ng.loop2.water3.frame514 

   -2  1 
C        -22.77788       85.46556       47.02168
C        -24.20757       85.04738       46.81835
O        -25.10549       85.87402       46.90340
H        -22.16750       85.04491       46.19405
H        -22.67097       86.56948       47.00510
H        -22.38148       85.07126       47.98167
N        -24.47359       83.74860       46.51394
C        -25.79749       83.23242       46.19263
C        -26.19376       83.61088       44.77714
O        -25.71654       83.00682       43.83682
C        -25.80963       81.70092       46.40779
C        -26.99648       80.98704       45.80167
O        -26.81379       80.02760       45.06689
O        -28.25342       81.40713       46.03750
H        -23.66945       83.10810       46.44944
H        -26.54044       83.64823       46.91082
H        -25.77623       81.53761       47.50428
H        -24.88492       81.24754       45.98507
N        -27.13505       84.56159       44.56843
C        -27.66770       84.91423       43.25779
C        -26.74562       85.86424       42.55421
O        -26.10259       86.64179       43.24418
C        -29.04012       85.54032       43.48161
H        -27.49240       85.06485       45.39368
H        -27.79519       84.01565       42.62355
H        -29.52133       85.88150       42.54296
H        -29.67826       84.76865       43.96977
H        -28.93549       86.40542       44.16941
N        -26.62545       85.91525       41.19263
C        -27.43358       85.16792       40.24270
C        -26.91165       83.79413       39.94079
O        -25.73045       83.50661       40.07118
C        -27.66433       85.94675       38.92755
C        -26.46357       86.68486       38.39099
O        -26.60080       87.79664       37.90739
O        -25.23111       86.15875       38.49003
H        -25.99595       86.61559       40.80104
H        -28.44617       85.01813       40.66978
H        -28.47912       86.67247       39.12587
H        -28.02449       85.27220       38.12156
N        -27.81039       82.89990       39.45748
C        -27.49355       81.54716       39.08946
C        -28.42604       80.57153       39.73804
O        -29.12444       80.93651       40.67570
H        -28.78505       83.21023       39.31700
H        -26.47914       81.26978       39.42610
H        -27.60133       81.48655       37.99150
N        -28.48085       79.27324       39.32858
C        -27.76521       78.72904       38.16548
C        -26.37884       78.21077       38.52310
O        -25.78761       77.53174       37.69490
C        -28.61683       77.64173       37.45337
C        -29.94050       78.15978       36.93983
N        -29.98138       79.19229       36.06692
O        -30.98272       77.63916       37.31050
H        -29.09613       78.64332       39.86451
H        -27.58510       79.49339       37.38507
H        -28.79475       76.80099       38.15388
H        -28.05274       77.26931       36.57294
H        -29.11028       79.58436       35.68349
H        -30.88120       79.60700       35.78182
N        -25.75588       78.52725       39.69820
C        -24.40672       78.05850       40.01220
C        -23.37641       78.59625       39.04125
O        -22.32125       77.99843       38.87942
H        -26.23075       79.13356       40.38023
H        -24.41660       76.94919       39.95624
H        -24.11123       78.37178       41.03383
N        -23.63634       79.75083       38.37732
C        -22.87438       80.29649       37.26957
C        -21.97980       81.41739       37.70578
O        -22.38012       82.26319       38.48635
C        -23.82010       80.73580       36.13142
C        -24.12316       79.53759       35.25539
O        -25.04766       81.22719       36.60055
H        -24.46832       80.27665       38.66229
H        -22.18520       79.53079       36.85195
H        -23.32445       81.50413       35.49177
H        -24.85707       82.04159       37.11073
H        -23.19244       79.01807       34.94505
H        -24.74520       78.81287       35.81421
H        -24.63836       79.90428       34.34884
N        -20.70066       81.42966       37.23046
C        -19.63080       82.24816       37.76534
C        -19.47454       83.56277       36.98897
O        -19.28516       83.55048       35.78471
C        -18.26385       81.44578       37.73597
C        -17.10987       82.31451       38.30701
C        -18.31664       80.11150       38.50543
C        -15.74370       81.62509       38.29591
H        -20.43399       80.69443       36.56016
H        -19.86930       82.45393       38.82933
H        -18.02054       81.18687       36.68026
H        -17.35135       82.65523       39.33968
H        -17.00415       83.20672       37.66534
H        -19.20494       79.49739       38.26055
H        -17.42142       79.48688       38.25893
H        -18.31390       80.32876       39.58851
H        -15.55750       81.24331       37.27458
H        -14.95373       82.36073       38.56329
H        -15.67980       80.77396       39.00924
N        -19.40127       84.72921       37.67553
C        -19.02612       86.03316       37.14914
C        -17.60800       86.52133       37.54187
O        -17.09667       87.38812       36.84548
C        -20.00995       87.06614       37.70667
C        -21.44489       86.73992       37.36224
O        -22.38651       86.48374       38.30842
O        -21.79866       86.83799       36.20144
H        -19.66977       84.68843       38.63038
H        -19.07948       86.00190       36.05362
H        -19.72411       88.08373       37.34254
H        -19.89737       87.06440       38.79873
N        -16.99544       86.14085       38.70435
C        -15.87195       86.84082       39.33131
C        -16.07712       86.88303       40.85266
O        -15.25875       86.33513       41.57895
C        -14.52388       86.18602       38.94096
C        -13.45755       87.22849       38.73565
C        -13.60348       88.18846       37.71153
C        -12.30182       87.22970       39.52750
C        -12.58240       89.10440       37.46129
C        -11.28550       88.15303       39.27860
C        -11.41630       89.06777       38.23340
H        -17.47029       85.45530       39.26841
H        -15.85393       87.89688       38.99187
H        -14.61859       85.63110       37.98594
H        -14.20054       85.42527       39.68654
H        -14.49440       88.21105       37.09013
H        -12.18189       86.50155       40.31825
H        -12.68957       89.82335       36.65624
H        -10.38193       88.15060       39.87574
H        -10.59824       89.73631       38.02482
N        -17.14671       87.50804       41.43895
C        -17.28116       87.62987       42.88750
C        -17.27096       86.31128       43.67399
O        -16.83389       86.27556       44.81163
C        -18.55828       88.44422       43.06529
C        -18.51387       89.34536       41.83911
C        -18.10735       88.35283       40.75437
H        -16.42289       88.23460       43.21374
H        -19.47855       87.81459       42.97515
H        -18.54809       88.96955       44.03549
H        -19.46060       89.88891       41.63070
H        -17.69042       90.08312       41.98481
H        -19.01113       87.77209       40.51495
H        -17.69734       88.87054       39.85923
N        -17.69288       85.18422       43.07186
C        -17.72468       83.83144       43.61142
C        -16.31442       83.36252       43.87211
O        -16.01976       82.94004       44.98050
C        -18.43964       82.82068       42.67939
C        -19.88432       83.20510       42.26766
C        -19.96264       84.08346       41.07149
O        -21.12139       84.31496       40.45279
O        -18.95510       84.50394       40.57248
H        -17.98271       85.36341       42.14706
H        -18.31682       83.82068       44.54556
H        -18.52645       81.88403       43.26867
H        -17.83641       82.55212       41.78163
H        -20.47142       83.64186       43.10580
H        -20.36561       82.27121       41.95024
N        -15.37567       83.47517       42.88856
C        -13.97178       83.17979       43.07343
H        -13.41326       84.12980       43.22935
H        -13.79814       82.50640       43.93643
H        -13.57737       82.70316       42.15234
H        -15.65255       83.88011       41.98300
Ca       -23.05472       84.64044       39.48158
O        -23.31217       82.95047       41.97873
H        -24.27963       83.05220       42.12579
H        -22.99809       82.41057       42.74530
O        -23.69803       86.70268       41.20283
H        -23.27607       87.57959       41.33166
H        -24.22880       86.62453       42.02117
O        -24.06658       84.13650       36.80033
H        -23.58422       83.91007       35.96755
H        -25.01960       84.18933       36.53190

Ca 1.0



