%chk=apoCaM-CA-Ng.loop1.water5.frame625.chk
%nprocshared=20
%mem=10GB
%nosave
#b3lyp/svp scf=(tight,noincore,xqc) Test 
#IOP(5/87=12) Density=Current Pop=(MK,readradii) iop(6/33=2) iop(6/42=6)

apoCaM-CA-Ng.loop1.water5.frame625 

   0  1 
C         75.44662       33.55148       19.17144
C         74.13175       33.98531       19.75308
O         73.09824       33.59685       19.22883
H         76.30250       33.97070       19.74242
H         75.51652       32.44426       19.19631
H         75.52256       33.90030       18.12004
N         74.09873       34.80508       20.83964
C         72.86738       35.29295       21.45498
C         72.79067       36.80861       21.30211
O         73.62902       37.36843       20.60644
C         72.77008       34.79977       22.91790
C         73.76893       35.42506       23.84642
O         73.37012       36.12207       24.76652
O         75.09526       35.26495       23.67602
H         74.99555       35.12079       21.23665
H         71.97850       34.87261       20.93662
H         72.87504       33.69444       22.94755
H         71.75231       35.03848       23.29658
N         71.79936       37.54473       21.89038
C         71.66019       38.98521       21.66078
C         72.92487       39.77773       21.97944
O         73.10297       40.82730       21.37640
C         70.38154       39.55582       22.30511
C         70.36379       39.51495       23.84256
C         68.96069       39.89056       24.35428
C         68.82400       39.83923       25.88412
N         69.60094       40.88682       26.54671
H         71.09834       37.05949       22.46756
H         71.51807       39.08961       20.56068
H         69.53202       38.95083       21.91713
H         70.22797       40.60580       21.97054
H         71.13730       40.20999       24.23099
H         70.59483       38.49002       24.20155
H         68.23990       39.15278       23.93620
H         68.66858       40.89980       23.99075
H         69.12779       38.83771       26.26215
H         67.75001       39.98577       26.13716
H         69.29998       41.82667       26.19943
H         69.42236       40.83916       27.57588
H         70.62316       40.75454       26.38140
N         73.90141       39.28026       22.79706
C         75.27177       39.79111       22.79540
C         76.22785       38.68465       22.34012
O         75.85708       37.52678       22.41781
C         75.66851       40.47273       24.13241
C         75.28489       39.86721       25.47277
O         74.60849       40.54997       26.22649
O         75.71527       38.67596       25.94213
H         73.70799       38.43433       23.35260
H         75.36317       40.58381       22.02827
H         75.17098       41.46870       24.11057
H         76.75676       40.67296       24.14273
N         77.45746       38.91654       21.78857
C         77.99228       40.21891       21.43646
C         77.28716       40.82423       20.23864
O         76.40363       40.20686       19.65777
H         78.04707       38.10043       21.56159
H         79.05882       40.10567       21.14484
H         77.95625       40.89801       22.30855
N         77.64179       42.07147       19.82775
C         76.99074       42.77277       18.72330
C         77.25525       42.13094       17.36245
O         78.03700       41.19559       17.25691
C         77.41943       44.26364       18.70566
C         78.87212       44.47976       18.35280
O         79.16606       45.12777       17.36110
O         79.85463       43.98713       19.13057
H         78.35501       42.56155       20.38603
H         75.89486       42.75386       18.91684
H         77.21434       44.71485       19.70006
H         76.79388       44.81402       17.97095
N         76.63651       42.64179       16.25971
C         76.87188       42.21149       14.89175
C         76.30783       40.85656       14.51928
O         76.35658       40.55246       13.33518
H         75.99889       43.44233       16.38201
H         77.95539       42.26713       14.65201
H         76.35120       42.93785       14.22817
N         75.75030       39.99432       15.42179
C         75.10982       38.74621       15.01763
C         75.94224       37.56510       15.47530
O         76.09650       37.35378       16.67017
C         73.67253       38.68250       15.58473
C         72.82597       39.89016       15.14923
O         73.04434       37.47817       15.21721
H         75.75519       40.22102       16.42481
H         75.03210       38.69806       13.90917
H         73.72646       38.70822       16.69553
H         72.79536       37.54102       14.25807
H         71.80890       39.81230       15.58682
H         73.28270       40.83808       15.50532
H         72.74171       39.93107       14.04230
N         76.54826       36.77481       14.54411
C         77.41766       35.65068       14.86351
C         78.84334       36.15467       14.81921
O         79.52904       36.06996       15.82786
C         77.16466       34.48134       13.85958
C         75.70474       33.97584       13.98551
C         78.17450       33.33416       14.07031
C         75.30238       32.98942       12.88585
H         76.46366       37.03907       13.55015
H         77.22280       35.28280       15.89712
H         77.30887       34.87123       12.82751
H         75.00795       34.83659       13.89873
H         75.55172       33.50885       14.98308
H         79.21534       33.69797       13.93948
H         78.07222       32.90170       15.08754
H         78.03652       32.53154       13.31878
H         75.41411       33.46595       11.88810
H         75.90531       32.06085       12.91850
H         74.23766       32.70448       13.02002
N         79.35033       36.69278       13.67597
C         80.69821       37.25208       13.56792
C         81.11868       37.40216       12.10713
O         80.33592       37.12863       11.20613
C         80.81550       38.60229       14.34307
C         79.74467       39.61432       13.91945
O         80.70987       38.37989       15.72488
H         78.73956       36.69305       12.84663
H         81.42329       36.51846       13.98503
H         81.81917       39.03779       14.13614
H         81.20221       39.11172       16.18191
H         79.88486       40.56288       14.48035
H         79.80967       39.83181       12.83368
H         78.73177       39.22314       14.15393
N         82.39116       37.78759       11.80895
C         82.91811       37.84621       10.45359
C         84.11133       36.90940       10.34576
O         84.07033       36.00030        9.52872
C         83.25074       39.31025       10.06389
C         83.76484       39.41471        8.62455
O         84.20282       39.87586       10.92760
H         83.03212       38.01833       12.58201
H         82.15054       37.50354        9.72266
H         82.30612       39.90477       10.10402
H         83.70598       40.29661       11.67711
H         83.94693       40.47943        8.36601
H         84.71837       38.85772        8.50376
H         83.01484       39.00463        7.91484
N         85.21528       37.08570       11.13021
C         86.42652       36.28588       11.01821
C         86.79721       35.67838       12.35953
O         86.89183       36.40608       13.33922
C         87.57262       37.20458       10.54158
C         88.91648       36.47924       10.31740
C         88.87342       35.48386        9.14653
C         90.24252       34.82693        8.92786
N         90.20778       33.91957        7.78106
H         85.22715       37.85833       11.81084
H         86.29423       35.48601       10.26219
H         87.72823       38.00092       11.30295
H         87.27675       37.70298        9.59235
H         89.23458       35.96358       11.24950
H         89.67925       37.25260       10.08183
H         88.57991       36.02963        8.22314
H         88.13198       34.68195        9.33975
H         90.53137       34.25822        9.83875
H         91.01103       35.61088        8.74843
H         91.14590       33.47180        7.66946
H         89.49117       33.17253        7.93102
H         89.98308       34.45369        6.91004
N         87.14463       34.36346       12.44531
C         87.71157       33.78698       13.66073
C         86.68031       33.67801       14.77688
O         86.91343       34.28715       15.81140
C         88.43200       32.44198       13.39198
C         89.59978       32.62146       12.40365
C         90.32340       31.32801       12.16987
O         90.38841       30.85610       11.04581
O         90.92041       30.69061       13.19495
H         87.11412       33.79423       11.58661
H         88.52244       34.46707       14.01379
H         87.74201       31.67033       13.00114
H         88.84654       32.06959       14.35541
H         90.32364       33.36353       12.80530
H         89.21885       32.99893       11.43235
N         85.53096       32.94162       14.70980
C         85.05894       32.18555       13.56817
H         84.04974       32.54990       13.28605
H         85.69755       32.28086       12.67723
H         84.98679       31.11241       13.84411
H         84.92640       32.91888       15.54602
Ca        76.22174       36.74023       24.93817
O         78.90545       38.25591       24.72469
H         79.71344       38.16027       24.16075
H         78.75204       39.23242       24.77620
O         78.52184       35.41747       23.23455
H         79.38780       34.95350       23.11236
H         78.26917       35.71533       22.32489
O         76.98094       33.66387       25.97411
H         77.88191       33.30839       25.76815
H         76.70336       33.17850       26.79134
O         75.28452       36.04247       27.85889
H         74.40652       35.76696       27.49337
H         75.60034       35.25412       28.36780
O         78.66514       36.07584       27.26186
H         79.02162       36.91056       27.65757
H         78.54649       35.46613       28.03312

Ca 1.0



