%chk=apoCaM-CA-Ng.loop2.water2.frame973.chk
%nprocshared=20
%mem=10GB
%nosave
#b3lyp/svp scf=(tight,noincore,xqc) Test 
#IOP(5/87=12) Density=Current Pop=(MK,readradii) iop(6/33=2) iop(6/42=6)

apoCaM-CA-Ng.loop2.water2.frame973 

   -2  1 
C         62.39391       19.29930       52.55427
C         62.77953       17.89621       52.91668
O         61.89228       17.08746       53.14970
H         61.58806       19.64926       53.23459
H         63.25759       19.98832       52.66184
H         62.02313       19.33048       51.50884
N         64.09123       17.52010       52.93758
C         64.53441       16.18780       53.32744
C         64.90671       15.37937       52.08303
O         66.03489       14.92898       51.93814
C         65.68451       16.32985       54.35363
C         66.10874       15.03794       55.00467
O         67.18180       15.03342       55.81808
O         65.48835       14.00130       54.82576
H         64.80739       18.20273       52.64424
H         63.69983       15.64389       53.82445
H         65.37756       17.01924       55.17146
H         66.55804       16.78163       53.83664
N         63.93431       15.11159       51.16645
C         64.09423       14.25461       49.99024
C         64.92385       14.93820       48.91251
O         64.58130       16.06283       48.57210
C         62.70238       13.94602       49.42651
H         62.99499       15.49064       51.36064
H         64.52088       13.28239       50.30690
H         62.19214       14.87534       49.09336
H         62.76747       13.24350       48.57269
H         62.08599       13.47236       50.22160
N         66.01461       14.38552       48.29767
C         66.53987       13.03001       48.49867
C         67.99188       12.93480       48.03231
O         68.42821       13.77104       47.26447
C         65.67957       11.97881       47.74979
C         65.61664       12.23162       46.25898
O         66.05336       11.40342       45.47547
O         65.05729       13.36061       45.78106
H         66.49546       14.99646       47.62024
H         66.56723       12.82426       49.58872
H         64.64333       11.97363       48.13856
H         66.10591       10.96695       47.92817
N         68.82279       11.96283       48.50314
C         70.23523       11.88912       48.14277
C         70.58472       10.53940       47.56555
O         71.06005        9.70526       48.32213
H         68.46299       11.28746       49.19586
H         70.82279       12.03703       49.07527
H         70.56397       12.68931       47.45087
N         70.37668       10.19562       46.26017
C         69.79980       11.06346       45.23968
C         70.82291       12.04391       44.66035
O         71.80026       11.61953       44.05931
C         69.22616       10.18070       44.10874
C         68.39355       10.92011       43.09813
N         67.79220       10.23342       42.10131
O         68.23870       12.12708       43.18221
H         70.58442        9.21791       46.00002
H         68.93285       11.59377       45.68693
H         68.56026        9.42122       44.56983
H         70.05205        9.65095       43.58360
H         67.90096        9.21179       42.02787
H         67.20979       10.71704       41.40655
N         70.62198       13.38278       44.77546
C         71.44040       14.40789       44.15357
C         71.18418       14.50039       42.66781
O         72.12888       14.60180       41.90063
H         69.82048       13.71067       45.32155
H         72.51675       14.29910       44.40785
H         71.10544       15.39014       44.55660
N         69.89956       14.59288       42.22173
C         69.52141       14.95441       40.85348
C         68.07551       15.49549       40.79827
O         67.48927       15.76663       42.03081
C         69.58628       13.77081       39.84204
C         70.99394       13.31023       39.50046
O         68.86566       12.66268       40.31540
H         69.17055       14.53999       42.94558
H         70.16777       15.79834       40.53242
H         69.15427       14.11090       38.86911
H         67.90496       12.86391       40.19732
H         71.48142       12.84190       40.37608
H         70.94245       12.54409       38.69679
H         71.59030       14.16950       39.12856
N         67.89120       16.61043       39.87265
C         66.46809       16.78343       39.54268
C         66.03925       15.69011       38.57642
O         66.42588       15.73658       37.41612
C         66.25821       18.21753       38.98026
C         64.78484       18.48899       38.58543
C         66.74871       19.24729       40.02313
C         64.61462       19.80063       37.81220
H         68.44709       16.47068       38.99733
H         65.85527       16.70589       40.46793
H         66.88582       18.31240       38.06654
H         64.13336       18.49116       39.48628
H         64.43329       17.68893       37.90477
H         67.81869       19.08101       40.26936
H         66.67792       20.28488       39.64686
H         66.15877       19.16171       40.96182
H         65.24568       19.78284       36.89679
H         63.55509       19.91639       37.50333
H         64.88676       20.68407       38.42239
N         65.26107       14.65422       39.00920
C         64.75804       13.61035       38.14355
C         63.23447       13.66274       38.13539
O         62.57230       12.65299       38.30242
C         65.37340       12.23376       38.50660
C         64.93980       11.61457       39.82674
O         65.18815       12.13265       41.05333
O         64.34706       10.54933       39.78416
H         64.99367       14.60762       39.99075
H         65.07372       13.81751       37.09629
H         66.48054       12.30548       38.45615
H         65.07023       11.52936       37.69789
N         62.63225       14.86576       37.88775
C         61.20663       15.05420       37.64550
C         60.59565       16.12578       38.57715
O         61.14101       17.21252       38.63067
C         61.09368       15.56443       36.19306
C         59.68256       15.89587       35.78772
C         59.25761       17.23526       35.79502
C         58.78600       14.88881       35.39973
C         57.95309       17.56282       35.42669
C         57.48305       15.22334       35.01491
C         57.06681       16.55864       35.03159
H         63.23427       15.69013       37.77009
H         60.67375       14.09044       37.71827
H         61.52991       14.83512       35.47489
H         61.71253       16.48564       36.10934
H         59.93363       18.02452       36.10138
H         59.09950       13.85222       35.38195
H         57.63296       18.59631       35.44667
H         56.79551       14.44860       34.70275
H         56.05831       16.81704       34.73806
N         59.38967       15.93905       39.22907
C         58.62375       17.02442       39.86029
C         59.23438       17.76117       41.03139
O         58.59601       18.68835       41.51632
C         57.36139       16.32215       40.37299
C         57.15887       15.24845       39.34017
C         58.58259       14.74079       39.13876
H         58.38034       17.75391       39.05543
H         57.59416       15.79937       41.33135
H         56.49450       16.99780       40.54037
H         56.42397       14.46307       39.61506
H         56.82367       15.74992       38.40327
H         58.89472       14.04609       39.94977
H         58.59874       14.23935       38.15148
N         60.41493       17.39502       41.58970
C         60.94080       18.04522       42.78949
C         61.26346       19.51995       42.60914
O         61.52931       20.17145       43.60921
C         62.15706       17.27848       43.30209
C         63.33153       17.29846       42.31790
C         64.22525       16.19106       42.72242
O         64.21804       15.16838       42.06920
O         64.87012       16.23042       43.89706
H         60.89949       16.57415       41.19977
H         60.15360       17.96442       43.57242
H         61.81091       16.22677       43.43918
H         62.49745       17.65001       44.29373
H         63.85975       18.27725       42.29290
H         62.99044       17.08912       41.28277
N         61.25934       20.11665       41.38216
C         61.48910       21.53287       41.18901
H         62.39010       21.67956       40.55934
H         60.60893       21.97029       40.67247
H         61.62910       22.07601       42.14718
H         61.08741       19.55888       40.53507
Ca        66.42505       13.79539       41.93925
O         63.59428       11.82144       43.24517
H         62.88447       12.33731       42.78592
H         63.13173       11.02847       43.61407
O         67.25728       15.32336       44.77345
H         67.13682       16.29203       44.93145
H         68.03729       15.09835       45.32780

Ca 1.0



