%chk=apoCaM-CA-Ng.loop1.water3.frame1490.chk
%nprocshared=20
%mem=10GB
%nosave
#b3lyp/svp scf=(tight,noincore,xqc) Test 
#IOP(5/87=12) Density=Current Pop=(MK,readradii) iop(6/33=2) iop(6/42=6)

apoCaM-CA-Ng.loop1.water3.frame1490 

   0  1 
C         21.43378       73.94033       29.86932
C         21.60809       73.23018       28.56179
O         22.74404       73.04492       28.14956
H         20.36181       74.04672       30.13430
H         21.94632       73.36779       30.67041
H         21.88326       74.95246       29.80181
N         20.52472       72.80765       27.84707
C         20.64359       72.12428       26.56384
C         20.06040       72.93519       25.42082
O         20.24958       72.51341       24.28737
C         20.03891       70.70471       26.62280
C         18.54514       70.67433       26.81657
O         17.83591       70.16087       25.96653
O         17.98209       71.17086       27.93411
H         19.58587       72.99097       28.22762
H         21.72011       71.99390       26.31631
H         20.52128       70.13300       27.44390
H         20.27950       70.18485       25.66817
N         19.36246       74.10086       25.61158
C         18.90655       74.91751       24.49490
C         19.36395       76.37658       24.64921
O         18.52641       77.25616       24.48775
C         17.36297       74.85015       24.37610
C         16.80226       73.42288       24.31382
C         15.28097       73.46675       24.08439
C         14.61391       72.08233       24.10907
N         14.60538       71.49791       25.45212
H         19.14281       74.43193       26.56105
H         19.31766       74.52821       23.54061
H         17.06108       75.40043       23.45641
H         16.90329       75.35253       25.25684
H         17.03699       72.92046       25.27359
H         17.27881       72.85684       23.48385
H         15.10416       73.92031       23.08419
H         14.78830       74.11069       24.84556
H         15.11878       71.39883       23.39129
H         13.55813       72.20512       23.78020
H         15.57386       71.32908       25.79655
H         14.10397       72.13293       26.11543
H         14.10224       70.58214       25.42265
N         20.63162       76.77917       24.97376
C         21.76767       75.93262       25.34483
C         22.23047       75.00420       24.23344
O         21.74283       75.10250       23.11748
C         22.95091       76.81049       25.82229
C         23.54430       77.66032       24.72832
O         24.70669       77.49548       24.40640
O         22.81785       78.60984       24.10780
H         20.75951       77.79969       25.04921
H         21.45933       75.32065       26.21638
H         23.75003       76.15238       26.22337
H         22.61770       77.46990       26.65343
N         23.19083       74.06389       24.49363
C         23.68527       73.12443       23.49682
C         25.17057       73.28215       23.26386
O         25.80872       74.09023       23.92154
H         23.58029       73.99479       25.44551
H         23.17254       73.27729       22.52468
H         23.47804       72.08750       23.83575
N         25.76905       72.56614       22.26528
C         27.16621       72.74820       21.86822
C         27.87120       71.41822       21.61404
O         27.19914       70.40207       21.52638
C         27.16643       73.62499       20.59485
C         26.81216       75.02198       20.99646
O         27.61876       75.64604       21.87582
O         25.79666       75.56356       20.59008
H         25.17092       71.96400       21.67970
H         27.71985       73.25684       22.68028
H         26.45258       73.21063       19.84828
H         28.14805       73.67826       20.09818
N         29.23450       71.31791       21.46778
C         30.18993       72.40132       21.68598
C         30.26177       72.79182       23.14178
O         29.65372       72.12195       23.96879
H         29.62797       70.39538       21.22439
H         29.94766       73.27794       21.06530
H         31.20870       72.07180       21.38909
N         30.99052       73.87719       23.53930
C         31.06642       74.27158       24.94662
C         29.67644       74.51822       25.51988
O         28.73272       74.69707       24.76436
C         32.02293       75.46331       25.19503
C         31.58081       76.75388       24.49549
O         33.31176       75.11413       24.75929
H         31.50052       74.41767       22.82419
H         31.48770       73.39571       25.49050
H         32.04196       75.64652       26.29582
H         33.95253       75.68219       25.26260
H         30.56909       77.05082       24.83030
H         32.28476       77.57568       24.74722
H         31.57289       76.63161       23.39363
N         29.47798       74.39078       26.86269
C         28.17149       74.30598       27.51161
C         27.37784       75.60322       27.41135
O         26.90347       75.94608       26.33760
C         27.36552       73.06938       26.97583
C         28.17696       71.76309       27.19762
C         25.97250       72.97607       27.62854
C         27.54969       70.52266       26.55490
H         30.30242       74.22793       27.46104
H         28.36305       74.11724       28.59201
H         27.20297       73.18956       25.88684
H         28.31434       71.58369       28.28613
H         29.18264       71.87193       26.73961
H         26.05917       72.83460       28.72578
H         25.38337       73.89419       27.42789
H         25.38348       72.14201       27.19708
H         27.43300       70.67382       25.46027
H         28.21540       69.64882       26.71968
H         26.56592       70.27862       27.00192
N         27.13354       76.32839       28.54236
C         26.20764       77.45625       28.61526
C         26.87951       78.75934       29.04798
O         26.16224       79.72117       29.28754
C         25.05249       77.08623       29.59013
C         25.49134       76.93355       31.05402
O         24.45474       75.88226       29.18267
H         27.57835       76.02313       29.42003
H         25.73782       77.64411       27.62421
H         24.29505       77.90642       29.57912
H         23.73896       76.11329       28.53827
H         25.94164       77.87485       31.43281
H         24.60510       76.70140       31.68195
H         26.21962       76.10757       31.18089
N         28.23533       78.88653       29.14563
C         28.89364       80.09538       29.64280
C         29.49349       80.88257       28.49503
O         30.27544       80.32468       27.73855
C         29.98167       79.72728       30.67878
C         29.38319       79.03184       31.90439
O         30.94638       78.89154       30.08853
H         28.83513       78.10455       28.84635
H         28.16089       80.75745       30.15469
H         30.45949       80.67937       31.01240
H         31.78255       78.99511       30.61339
H         30.18771       78.81213       32.63807
H         28.63428       79.69154       32.39115
H         28.89548       78.07586       31.61812
N         29.16175       82.20087       28.31142
C         29.65895       83.02356       27.21215
C         29.15730       82.45199       25.90497
O         29.94062       81.99449       25.08350
C         31.19764       83.20049       27.26578
C         31.69857       83.99087       28.49196
C         31.27656       85.47325       28.45663
C         31.93232       86.27614       29.58884
N         31.58600       87.69520       29.49077
H         28.50688       82.64719       28.97123
H         29.21492       84.03864       27.27433
H         31.53649       83.74567       26.35727
H         31.69610       82.21125       27.25069
H         32.80960       83.95926       28.46297
H         31.36391       83.50639       29.43509
H         30.17458       85.57214       28.54298
H         31.60087       85.91179       27.48748
H         33.03832       86.17236       29.52290
H         31.59928       85.87873       30.57302
H         31.91676       88.08330       28.57694
H         30.55135       87.82328       29.57245
H         32.05567       88.21855       30.26462
N         27.81811       82.48827       25.65314
C         27.20253       81.96664       24.44430
C         26.15043       80.91387       24.79547
O         26.39387       79.77258       24.44289
C         26.70821       83.12628       23.55930
C         26.04797       82.63046       22.26538
C         25.68596       83.78437       21.37618
O         26.16601       83.87038       20.25709
O         24.82701       84.72845       21.80621
H         27.21926       82.94198       26.35280
H         27.97839       81.44878       23.83398
H         27.59593       83.74318       23.29368
H         26.01920       83.79170       24.10960
H         25.12438       82.06135       22.50511
H         26.74989       81.95570       21.72711
N         24.97691       81.13009       25.46650
C         24.46106       82.39958       25.93037
H         23.48499       82.23574       26.43495
H         25.12892       82.86564       26.67444
H         24.26113       83.07490       25.07886
H         24.37879       80.30959       25.64958
Ca        27.09388       77.53601       22.94183
O         28.43228       78.31923       25.93361
H         28.81503       79.22275       25.81070
H         29.09986       77.83755       26.48277
O         25.74128       78.98660       20.79466
H         25.58314       79.47084       21.64405
H         26.72627       78.98450       20.68945
O         29.80016       78.55151       22.48142
H         29.30119       79.02577       21.77031
H         29.44972       78.93166       23.32589

Ca 1.0



