%chk=apoCaM-CA-Ng.loop3.water7.frame1109.chk
%nprocshared=20
%mem=10GB
%nosave
#b3lyp/svp scf=(tight,noincore,xqc) Test 
#IOP(5/87=12) Density=Current Pop=(MK,readradii) iop(6/33=2) iop(6/42=6)

apoCaM-CA-Ng.loop3.water7.frame1109 

   0  1 
C         59.31764        6.36772       41.48485
C         59.85967        7.45547       42.36303
O         59.36507        8.56885       42.29245
H         58.48827        6.75213       40.85099
H         60.12050        5.97473       40.82871
H         58.92132        5.54610       42.11826
N         60.85044        7.18907       43.26075
C         61.34847        8.19451       44.20123
C         62.86659        8.32651       44.26882
O         63.30660        9.30901       44.84905
C         60.77511        7.92899       45.60987
C         61.11315        6.58268       46.20332
O         61.76823        5.75865       45.58795
O         60.66457        6.27558       47.43393
H         61.18135        6.21670       43.32048
H         60.97654        9.19734       43.89270
H         59.66820        8.00267       45.55758
H         61.13705        8.72057       46.30120
N         63.73189        7.40073       43.75234
C         65.19081        7.51713       43.83598
C         65.62522        8.75484       43.07280
O         66.24581        9.64412       43.64166
C         65.69518        7.55679       45.30993
C         65.17872        6.43294       46.22024
C         65.65776        5.03543       45.80926
C         65.21493        3.94325       46.80279
N         63.76204        3.76831       46.83882
H         63.36155        6.56666       43.27730
H         65.64214        6.63088       43.33778
H         65.37550        8.50709       45.78532
H         66.80756        7.55532       45.31623
H         64.07550        6.48223       46.24842
H         65.55139        6.63882       47.24765
H         66.76929        5.04352       45.79172
H         65.29128        4.77982       44.79285
H         65.58683        4.18405       47.82397
H         65.67910        2.98322       46.48892
H         63.53070        2.95988       47.45978
H         63.29985        4.61502       47.23672
H         63.39885        3.56782       45.87850
N         65.25078        8.89845       41.77308
C         65.44969       10.13001       41.01946
C         64.11724       10.81565       40.72701
O         64.15031       11.94674       40.26083
C         66.29172        9.87003       39.75652
C         65.74505        8.75431       38.91319
O         66.42966        7.76669       38.69948
O         64.49805        8.82179       38.41317
H         64.73813        8.12353       41.32422
H         66.01263       10.86837       41.63193
H         67.32210        9.59457       40.07395
H         66.36410       10.79928       39.15094
N         62.90834       10.23637       41.00980
C         61.64905       10.95599       40.88740
C         61.50738       11.98413       41.99776
O         62.39361       12.06603       42.83778
H         62.85416        9.26480       41.34280
H         60.80924       10.24134       40.99631
H         61.58437       11.41785       39.88020
N         60.43380       12.81913       42.11273
C         59.30050       12.89201       41.19612
C         58.00533       12.70725       41.98312
O         57.77223       13.49621       42.88889
C         59.29544       14.28711       40.53686
C         60.55337       14.54295       39.74432
N         60.84986       13.79597       38.65624
O         61.30882       15.44125       40.08518
H         60.43901       13.48582       42.90203
H         59.38177       12.13205       40.39745
H         59.21041       15.06125       41.33375
H         58.41953       14.39201       39.86190
H         60.21827       13.04417       38.34501
H         61.71005       13.97557       38.11768
N         57.09922       11.71296       41.74685
C         57.24098       10.68700       40.72741
C         56.14794        9.64629       40.86525
O         56.01602        9.08455       41.94490
H         56.26838       11.67898       42.36030
H         58.20661       10.16927       40.87006
H         57.23809       11.14929       39.71631
N         55.35091        9.30707       39.81089
C         54.29125        8.29997       39.89402
C         54.68293        7.07615       39.07445
O         55.70544        7.11662       38.39804
C         52.97626        8.94430       39.38767
C         51.73122        8.10167       39.54696
C         51.01457        7.66620       38.41775
C         51.25480        7.77083       40.82724
C         49.84502        6.91373       38.56767
C         50.08157        7.02267       40.97452
C         49.37199        6.59255       39.84387
O         48.23589        5.87685       39.97062
H         55.52094        9.75907       38.89786
H         54.16438        7.96782       40.94725
H         53.12173        9.21232       38.31732
H         52.79819        9.89202       39.94130
H         51.35787        7.90873       37.42003
H         51.78353        8.10377       41.71121
H         49.30232        6.58421       37.69029
H         49.72151        6.78322       41.96729
H         47.86653        5.64394       40.83452
N         53.93997        5.93170       39.10815
C         54.28815        4.74481       38.31956
C         54.23571        5.04972       36.82446
O         53.83471        6.13795       36.44232
C         53.39854        3.50921       38.67492
C         53.65653        3.05913       40.13525
C         51.90323        3.76064       38.39057
C         52.98408        1.73083       40.49118
H         53.12654        5.89844       39.73681
H         55.34133        4.47411       38.55739
H         53.72202        2.66581       38.02831
H         53.32793        3.83863       40.85452
H         54.75088        2.90768       40.26607
H         51.75348        4.06939       37.33527
H         51.31091        2.83593       38.53956
H         51.48835        4.54415       39.05454
H         51.87944        1.81311       40.45813
H         53.31651        0.93174       39.79403
H         53.27103        1.43689       41.52280
N         54.65570        4.11334       35.92164
C         54.70151        4.35889       34.48261
C         56.12215        4.20296       33.96927
O         56.98451        3.75877       34.71055
C         53.73916        3.40579       33.76391
O         54.09988        2.07304       34.01074
H         54.98105        3.19870       36.26390
H         54.38434        5.40003       34.26024
H         53.75315        3.59759       32.66911
H         52.71269        3.60450       34.15131
H         53.29538        1.52427       33.82008
N         56.43518        4.59642       32.69674
C         57.78114        4.54319       32.13056
C         58.27905        3.12439       31.89415
O         59.45796        2.97496       31.60342
C         58.76836        5.37317       32.97343
H         55.69102        4.99945       32.10960
H         57.75964        5.02764       31.12901
H         59.75638        5.42274       32.46775
H         58.38945        6.41157       33.08207
H         58.93383        4.94394       33.98119
N         57.43926        2.04092       31.92546
C         57.86070        0.67072       31.63335
C         58.81965        0.10867       32.67495
O         59.35100       -0.97029       32.45222
C         58.43980        0.56684       30.20904
H         56.43809        2.18227       32.12194
H         56.96352        0.01259       31.64570
H         57.70154        0.95018       29.47311
H         59.38673        1.12917       30.09069
H         58.65232       -0.49432       29.95836
N         59.05150        0.75033       33.85914
C         59.96929        0.24604       34.87384
C         59.56676       -1.14996       35.31783
O         60.36434       -2.06543       35.16694
C         60.00145        1.22085       36.07823
C         60.97726        0.84073       37.20629
C         62.42296        0.93098       36.80029
O         63.23128        1.81593       37.41313
O         62.88171        0.19430       35.94274
H         58.55652        1.62993       34.05790
H         60.98043        0.20889       34.41796
H         58.98092        1.27400       36.51649
H         60.25997        2.24231       35.72101
H         60.75495       -0.17644       37.59301
H         60.81361        1.55961       38.03844
N         58.33995       -1.38428       35.86381
C         57.89777       -2.69399       36.30065
H         56.98585       -2.98140       35.73675
H         58.66742       -3.47865       36.14137
H         57.65529       -2.65835       37.38316
H         57.67837       -0.60155       35.97344
Ca        65.24024        6.07550       36.69626
O         62.30018        5.64838       37.10358
H         61.79576        6.45717       37.37134
H         62.32962        5.09064       37.92118
O         68.22343        5.21873       37.34644
H         68.30605        4.27538       37.63552
H         68.88414        5.31295       36.61507
O         64.41909        8.74222       35.40227
H         63.81632        9.28997       35.96483
H         65.24391        9.28412       35.32356
O         65.12968        5.00271       39.58751
H         65.50613        4.91520       40.49898
H         64.45508        4.28063       39.52463
O         66.08744        3.07969       36.33310
H         65.34517        3.34347       36.93245
H         65.64622        2.84985       35.47742
O         67.34485        6.97459       34.65611
H         66.82244        7.62867       34.12776
H         67.12268        6.09750       34.25380
O         64.35412        5.12525       33.99933
H         63.84498        4.31654       34.25827
H         63.68170        5.85208       33.99715

Ca 1.0



