%chk=apoCaM-CA-Ng.loop3.water6.frame420.chk
%nprocshared=20
%mem=10GB
%nosave
#b3lyp/svp scf=(tight,noincore,xqc) Test 
#IOP(5/87=12) Density=Current Pop=(MK,readradii) iop(6/33=2) iop(6/42=6)

apoCaM-CA-Ng.loop3.water6.frame420 

   0  1 
C         79.96661       53.36579       79.88769
C         79.20111       53.59295       81.15669
O         79.47502       52.93319       82.14841
H         80.74710       52.58880       80.03180
H         79.26759       53.02681       79.09418
H         80.45304       54.31012       79.56581
N         78.22236       54.53854       81.19482
C         77.40771       54.79554       82.37952
C         76.57763       56.04837       82.16213
O         75.95039       56.17402       81.12221
C         76.47591       53.59687       82.67966
C         75.76031       53.69527       84.00894
O         74.98115       52.81481       84.33403
O         75.99195       54.70915       84.86550
H         78.07219       55.10338       80.34402
H         78.08759       54.94713       83.24761
H         77.06168       52.65682       82.71364
H         75.72710       53.50663       81.86300
N         76.52273       57.00243       83.13253
C         75.79184       58.26624       83.01662
C         75.86315       59.04523       84.31496
O         76.15540       58.47893       85.35993
C         74.29596       58.08663       82.63654
C         73.51675       57.20483       83.62863
C         72.07163       56.99371       83.15267
C         71.27179       56.03800       84.05455
N         71.05032       56.58184       85.39548
H         77.05120       56.81445       83.99555
H         76.29287       58.86188       82.22279
H         74.21345       57.64473       81.62592
H         73.80846       59.08472       82.57079
H         73.52497       57.68220       84.62959
H         74.01018       56.21315       83.69924
H         72.10539       56.53861       82.13835
H         71.54365       57.96949       83.07781
H         71.79586       55.05867       84.12451
H         70.28280       55.86075       83.57666
H         70.54765       57.49689       85.33304
H         70.45878       55.91066       85.93685
H         71.95359       56.70289       85.90493
N         75.57334       60.37252       84.32226
C         75.53039       61.12364       85.56502
C         74.25486       60.76255       86.32210
O         73.33817       60.21015       85.72696
C         75.70789       62.62224       85.24851
C         75.75363       63.49047       86.46400
O         74.73870       63.72534       87.08346
O         76.89861       64.06124       86.86357
H         75.38537       60.85020       83.42715
H         76.41245       60.83088       86.17847
H         74.91994       62.99124       84.56084
H         76.68188       62.72377       84.72096
N         74.14408       61.00301       87.65742
C         72.94932       60.69158       88.42622
C         71.77762       61.50197       87.93012
O         70.75277       60.93523       87.57995
H         74.94244       61.41648       88.15925
H         73.12958       60.95465       89.49028
H         72.73165       59.60157       88.37466
N         71.89652       62.85332       87.83693
C         70.86186       63.74828       87.34641
C         71.21285       64.28885       85.95317
O         70.66259       65.30558       85.55879
C         70.68905       64.90051       88.36266
C         70.44039       64.41707       89.77301
N         69.37110       63.64454       90.06989
O         71.21719       64.73439       90.66153
H         72.78151       63.27909       88.12353
H         69.89203       63.21602       87.24696
H         69.84100       65.54569       88.05178
H         71.61506       65.51762       88.35968
H         68.70116       63.36579       89.33997
H         69.21565       63.32159       91.03681
N         72.03997       63.60184       85.10715
C         72.33781       64.00801       83.73381
C         73.31928       65.16561       83.59653
O         73.68712       65.47902       82.47367
H         72.41752       62.69505       85.41065
H         71.39365       64.22134       83.18738
H         72.82361       63.14582       83.22731
N         73.79884       65.83488       84.67741
C         74.80025       66.90060       84.62368
C         74.82712       67.57211       85.98043
O         75.00970       66.90893       86.99141
C         76.19256       66.35669       84.21286
C         77.32876       67.29255       84.59310
C         77.40626       68.60905       84.10542
C         78.31351       66.84467       85.49284
C         78.43818       69.45898       84.53075
C         79.33744       67.69119       85.91403
C         79.40076       69.00496       85.44084
O         80.37636       69.83672       85.85918
H         73.42833       65.57876       85.60155
H         74.49800       67.67103       83.88007
H         76.20703       66.13900       83.12327
H         76.35394       65.39712       84.73142
H         76.66207       68.98386       83.41506
H         78.28878       65.83992       85.88365
H         78.48410       70.47647       84.16432
H         80.07650       67.32586       86.61559
H         81.04392       69.55997       86.50444
N         74.60934       68.90961       86.06136
C         74.37181       69.59469       87.31678
C         72.96888       69.23154       87.77190
O         72.79858       68.88535       88.93032
C         74.58184       71.12693       87.15240
C         76.01206       71.46630       86.63612
C         74.30473       71.87668       88.46790
C         77.16648       71.01578       87.54351
H         74.49799       69.44842       85.18836
H         75.10137       69.25977       88.08494
H         73.86067       71.50684       86.39492
H         76.08926       72.56639       86.50001
H         76.16649       71.00662       85.63825
H         74.46835       72.96643       88.33143
H         73.25475       71.73927       88.77845
H         74.95429       71.51215       89.29060
H         77.10292       71.48548       88.54574
H         77.18928       69.91271       87.65174
H         78.13104       71.32324       87.08878
N         71.92541       69.20461       86.88468
C         70.58600       68.77365       87.27589
C         69.90552       69.77698       88.18484
O         68.91102       69.42064       88.80115
C         69.69918       68.51198       86.05061
O         69.50473       69.69686       85.32900
H         72.10731       69.42653       85.89432
H         70.69633       67.80934       87.81852
H         68.71674       68.11048       86.39004
H         70.19647       67.76059       85.40212
H         68.92916       69.45493       84.55799
N         70.38185       71.05078       88.31419
C         69.83790       72.04340       89.22795
C         69.92732       71.50766       90.64454
O         68.94339       71.49987       91.37146
C         68.41901       72.45777       88.80747
H         71.20162       71.34117       87.76398
H         70.48210       72.94866       89.16357
H         68.04422       73.26830       89.46618
H         68.43415       72.83338       87.76149
H         67.71087       71.60528       88.86054
N         71.10104       70.95165       91.05445
C         71.28949       70.26932       92.32155
C         72.55194       70.74678       92.99230
O         73.56473       70.90815       92.32431
C         71.42641       68.76965       92.06788
H         71.88532       70.92540       90.38832
H         70.41031       70.39674       92.99169
H         72.31151       68.55111       91.43658
H         71.54108       68.23623       93.03629
H         70.51415       68.38736       91.56383
N         72.58105       70.90657       94.34149
C         73.76829       71.28180       95.09668
C         74.24073       72.65586       94.64989
O         75.41948       72.83640       94.37280
C         74.89355       70.21611       94.96176
C         74.41137       68.77904       95.20908
C         75.55119       67.81004       95.06639
O         75.52287       66.95021       94.20023
O         76.60993       67.88385       95.89534
H         71.71694       70.73256       94.87801
H         73.46732       71.33979       96.16692
H         75.70967       70.46994       95.67375
H         75.32006       70.24623       93.93552
H         73.63100       68.52125       94.45974
H         73.97365       68.68199       96.22361
N         73.33614       73.66206       94.49024
C         73.68390       74.96895       93.97176
H         74.77365       75.07738       93.78879
H         73.15639       75.12603       93.00657
H         73.36441       75.74991       94.69035
H         72.34080       73.48304       94.69247
Ca        76.74176       65.33298       88.71592
O         77.05045       67.88250       90.08438
H         77.68291       68.11992       89.36050
H         76.42355       68.64684       90.13168
O         74.25077       66.63683       90.10066
H         74.05930       66.48859       91.06021
H         73.38543       66.47634       89.64887
O         74.49713       63.44521       90.27252
H         73.66530       63.97747       90.31097
H         74.33825       62.69580       90.89880
O         77.01087       64.85673       91.62551
H         76.79579       65.59710       92.24546
H         76.70416       64.04088       92.09460
O         79.61813       65.37822       88.43160
H         79.42177       65.97013       89.20101
H         79.62494       64.46526       88.81408
O         77.13203       62.39065       89.39394
H         77.41295       61.57281       88.91256
H         77.26080       62.17611       90.35136

Ca 1.0



