%chk=apoCaM-CA-Ng.loop2.water3.frame14.chk
%nprocshared=20
%mem=10GB
%nosave
#b3lyp/svp scf=(tight,noincore,xqc) Test 
#IOP(5/87=12) Density=Current Pop=(MK,readradii) iop(6/33=2) iop(6/42=6)

apoCaM-CA-Ng.loop2.water3.frame14 

   -2  1 
C         55.07519       53.78718       59.27672
C         53.70260       54.00495       59.84753
O         52.87963       53.10283       59.80677
H         55.82968       53.87291       60.08678
H         55.16279       52.78480       58.80699
H         55.28801       54.56012       58.50675
N         53.39108       55.21202       60.39183
C         52.09165       55.55032       60.96919
C         50.95714       55.37344       59.97271
O         49.90161       54.91018       60.37325
C         52.11903       57.00823       61.46991
C         50.82620       57.41030       62.12545
O         50.38345       56.74989       63.21253
O         50.17322       58.33810       61.67518
H         54.12795       55.93530       60.38771
H         51.90264       54.89183       61.84722
H         52.33151       57.68580       60.61293
H         52.93516       57.12285       62.21563
N         51.10671       55.72250       58.66391
C         50.07105       55.60009       57.64119
C         49.54281       54.16877       57.50193
O         48.34719       53.98743       57.31092
C         48.95443       56.62968       57.89013
H         52.02216       56.08472       58.35739
H         50.54341       55.86658       56.67029
H         49.39237       57.64917       57.95950
H         48.22283       56.62678       57.05441
H         48.41464       56.41706       58.83708
N         50.38957       53.09764       57.61633
C         50.00921       51.68664       57.46341
C         48.87013       51.24443       58.39718
O         48.32949       50.16525       58.19829
C         49.68584       51.41659       55.98245
C         49.66580       49.94955       55.61029
O         48.66776       49.49073       55.07931
O         50.76767       49.16396       55.70602
H         51.38151       53.28872       57.80835
H         50.90526       51.06903       57.68955
H         50.47641       51.87974       55.35396
H         48.71801       51.89769       55.71543
N         48.44440       52.02851       59.43057
C         47.28911       51.74436       60.26387
C         47.40661       50.53362       61.15509
O         46.44946       50.28244       61.87570
H         48.92205       52.91021       59.62202
H         46.39261       51.64162       59.61622
H         47.12187       52.61353       60.93871
N         48.51146       49.73314       61.19317
C         48.57080       48.58746       62.09249
C         48.62200       49.07248       63.52305
O         48.98382       50.22116       63.74701
C         49.78995       47.68482       61.80805
C         49.72818       47.10907       60.41419
N         49.54254       45.78417       60.22082
O         49.83313       47.84596       59.44724
H         49.31705       49.93714       60.58922
H         47.65343       47.97443       61.93930
H         49.78531       46.85199       62.54458
H         50.74349       48.24448       61.93834
H         49.43288       45.14131       61.01732
H         49.48167       45.40279       59.26638
N         48.31938       48.23248       64.55092
C         48.46240       48.63424       65.93920
C         49.63418       47.91755       66.55213
O         50.18765       47.01397       65.93803
H         48.02909       47.26363       64.34563
H         47.52255       48.45864       66.50668
H         48.68486       49.71998       66.01077
N         50.12323       48.33223       67.75261
C         51.31616       47.74644       68.36034
C         52.57876       47.96490       67.51901
O         53.58791       47.34923       67.83079
C         51.50278       48.31395       69.78872
C         52.62881       47.62803       70.57445
O         51.74279       49.69677       69.71706
H         49.62713       49.09454       68.24083
H         51.13186       46.65145       68.44023
H         50.54697       48.12237       70.32954
H         51.58084       50.06572       70.62363
H         53.62554       47.85199       70.14515
H         52.63524       48.00312       71.61769
H         52.47023       46.52887       70.59110
N         52.60233       48.78385       66.42636
C         53.78715       48.94158       65.58832
C         53.58907       48.15581       64.30959
O         52.49235       47.67160       64.06246
C         54.10987       50.45573       65.32249
C         52.97294       51.17756       64.53526
C         54.42252       51.17000       66.64967
C         53.27122       52.63829       64.17959
H         51.74440       49.26469       66.13314
H         54.67095       48.48218       66.08268
H         55.03218       50.50416       64.70175
H         52.02599       51.17082       65.11145
H         52.80284       50.63899       63.57871
H         55.24519       50.64705       67.18097
H         54.76752       52.20990       66.47356
H         53.52763       51.19709       67.30656
H         54.20089       52.71796       63.57863
H         52.42815       53.04765       63.58230
H         53.35992       53.26692       65.08926
N         54.62119       47.99837       63.43824
C         54.45618       47.40223       62.11971
C         55.43922       46.22707       61.90226
O         55.51772       45.73840       60.78469
C         54.61426       48.59170       61.14036
C         53.89431       48.59001       59.81190
O         54.01808       49.57846       59.10752
O         53.02242       47.64396       59.41448
H         55.53869       48.41147       63.67136
H         53.42146       47.01598       61.99454
H         55.69080       48.82973       61.02190
H         54.14299       49.47682       61.62788
N         56.17380       45.68254       62.93635
C         57.08540       44.53389       62.79001
C         58.30695       44.92778       61.97106
O         59.01087       45.81910       62.41862
C         57.60918       44.05361       64.17283
C         58.56955       42.88598       64.02941
C         58.08929       41.58366       63.81065
C         59.96070       43.10016       64.08391
C         58.98369       40.51734       63.65477
C         60.84997       42.03516       63.90964
C         60.36214       40.74407       63.69845
H         56.04854       46.06288       63.88555
H         56.51689       43.69834       62.33490
H         56.77939       43.77238       64.85643
H         58.13897       44.90437       64.65702
H         57.02472       41.39370       63.76783
H         60.35938       44.09510       64.23682
H         58.60948       39.51443       63.49479
H         61.91816       42.21158       63.93464
H         61.05278       39.92032       63.56701
N         58.69157       44.28933       60.82339
C         59.85308       44.67776       60.03033
C         59.73937       46.10575       59.51836
O         60.70597       46.85017       59.59706
C         59.86075       43.66769       58.87649
C         59.24541       42.45013       59.53537
C         58.08791       43.08293       60.29948
H         60.77244       44.54018       60.64451
H         59.15208       43.98502       58.07895
H         60.86309       43.50826       58.42206
H         58.95469       41.63199       58.84400
H         59.97673       42.04846       60.27739
H         57.25835       43.36174       59.61236
H         57.75126       42.36694       61.07584
N         58.54446       46.56716       59.04104
C         58.31196       47.94148       58.58131
C         58.52932       48.98921       59.68001
O         58.51023       50.17291       59.37223
C         56.85945       48.08977       58.08024
C         56.51841       47.19863       56.87867
C         55.05872       47.30628       56.54869
O         54.57726       48.37564       56.20991
O         54.27110       46.21767       56.63819
H         57.75712       45.90269       59.02885
H         59.01641       48.15685       57.74882
H         56.65635       49.14744       57.79911
H         56.19727       47.81180       58.92197
H         56.73418       46.13592       57.10722
H         57.12489       47.49810       55.99862
N         58.71713       48.63766       60.97862
C         58.94746       49.58070       62.04775
H         59.87189       50.16146       61.84866
H         58.07753       50.26011       62.15233
H         59.08223       49.02816       63.00498
H         58.68078       47.65879       61.23203
Ca        51.89978       48.37210       57.54117
O         49.31846       46.65890       56.76777
H         48.83697       45.80340       56.64845
H         49.32635       47.05766       55.86367
O         51.66490       44.94530       57.86931
H         51.05049       44.19393       57.67240
H         52.48190       44.51272       58.22268
O         51.99117       46.54378       54.68174
H         52.92127       46.40671       54.37170
H         51.54060       45.68076       54.50279

Ca 1.0



