%chk=apoCaM-CA-Ng.loop4.water5.frame699.chk
%nprocshared=20
%mem=10GB
%nosave
#b3lyp/svp scf=(tight,noincore,xqc) Test 
#IOP(5/87=12) Density=Current Pop=(MK,readradii) iop(6/33=2) iop(6/42=6)

apoCaM-CA-Ng.loop4.water5.frame699 

   -3  1 
C         96.48410       97.11002        0.68248
C         97.93108       96.85921        0.98395
O         98.68533       96.53736        0.07742
H         95.85157       96.43303        1.28961
H         96.22957       98.15957        0.93957
H         96.26706       96.94132       -0.39373
N         98.38894       97.01147        2.25855
C         99.77914       96.84202        2.66840
C        100.65929       97.83455        1.92988
O        101.62478       97.43863        1.28872
C        100.25440       95.38055        2.48291
C         99.38160       94.40790        3.22290
O         99.24533       94.49764        4.55963
O         98.80109       93.52329        2.61464
H         97.71478       97.29246        2.98757
H         99.84845       97.08451        3.75260
H        101.29284       95.27988        2.86645
H        100.26523       95.11308        1.40424
N        100.34619       99.16221        1.94782
C        101.11734      100.14788        1.19456
C        102.52804      100.28821        1.76247
O        102.70433      100.04020        2.94749
C        100.41096      101.53651        1.11409
C        100.23772      102.19347        2.51019
C         99.07476      101.39951        0.35809
C         99.68610      103.61797        2.44681
H         99.50142       99.45275        2.45984
H        101.17918       99.74560        0.16075
H        101.05670      102.20800        0.50753
H        101.22988      102.26114        3.00397
H         99.57209      101.58447        3.15596
H         99.24944      100.94475       -0.64078
H         98.35567      100.76351        0.91455
H         98.60990      102.38918        0.17991
H        100.34826      104.25900        1.82676
H         98.65799      103.63686        2.03362
H         99.64402      104.04026        3.47279
N        103.61105      100.62891        1.00024
C        103.57569      100.81002       -0.44784
C        103.90007       99.50789       -1.16400
O        103.78994       99.47459       -2.38115
C        104.45490      101.99437       -0.90842
C        105.93583      101.79749       -0.70347
O        106.45456      101.68578        0.53351
O        106.68484      101.78190       -1.66728
H        104.52873      100.60629        1.46667
H        102.55288      101.08213       -0.76638
H        104.13514      102.91925       -0.38132
H        104.27067      102.15130       -1.99513
N        104.25518       98.37948       -0.47677
C        104.45199       97.08969       -1.10683
C        105.56957       97.12576       -2.11143
O        106.69316       97.44152       -1.74671
H        104.35789       98.40221        0.54677
H        103.49774       96.77499       -1.58285
H        104.70289       96.33497       -0.33049
N        105.31809       96.79512       -3.40695
C        106.32989       96.79377       -4.45365
C        106.01154       97.78151       -5.56526
O        106.81438       97.87595       -6.48290
C        106.54945       95.35727       -5.00217
C        105.35522       94.62147       -5.57161
O        104.11117       95.13110       -5.54015
O        105.52062       93.50982       -6.04700
H        104.35517       96.53106       -3.65561
H        107.31062       97.11726       -4.04113
H        106.94992       94.72945       -4.17786
H        107.33017       95.40645       -5.79290
N        104.89296       98.57000       -5.56594
C        104.59142       99.47514       -6.66502
C        104.24896       98.73939       -7.94911
O        104.08594       99.39711       -8.96594
H        104.23409       98.54717       -4.77679
H        105.46426      100.14529       -6.82543
H        103.71783      100.11092       -6.40243
N        104.08754       97.38082       -7.97249
C        103.76487       96.58836       -9.15101
C        102.37905       96.90223       -9.70230
O        102.05566       96.42578      -10.78089
C        104.91155       96.65138      -10.18709
C        106.23058       96.18195       -9.53288
C        107.40562       96.08693      -10.46835
N        108.60927       95.70085       -9.98260
O        107.28595       96.34910      -11.65589
H        104.18820       96.85303       -7.10606
H        103.70640       95.51833       -8.84775
H        105.03366       97.67655      -10.59586
H        104.66726       95.96493      -11.02702
H        106.07944       95.17688       -9.08115
H        106.50472       96.89120       -8.72928
H        108.72441       95.47890       -8.98169
H        109.42864       95.62379      -10.60260
N        101.47091       97.60809       -8.96147
C        100.09610       97.87179       -9.37997
C         99.07109       97.23505       -8.43873
O         97.88882       97.31289       -8.74618
C         99.84814       99.40824       -9.45580
C        100.05509      100.11500       -8.09813
C        100.74271      100.05809      -10.51709
H        101.75032       97.95616       -8.03703
H         99.91347       97.43282      -10.38538
H         98.79271       99.57562       -9.76574
H        101.10700      100.04460       -7.75074
H         99.80628      101.19301       -8.18444
H         99.39541       99.67990       -7.32040
H        100.55211       99.59782      -11.50907
H        100.52143      101.14442      -10.58837
H        101.81567       99.93364      -10.26364
N         99.42863       96.65914       -7.25229
C         98.47050       96.19407       -6.25199
C         98.83399       94.76239       -5.84648
O         99.78907       94.21973       -6.38895
C         98.52607       97.25035       -5.10850
C         97.36927       97.30765       -4.12847
N         96.48433       98.33507       -4.17889
O         97.25138       96.46828       -3.25197
H        100.41853       96.63519       -6.97283
H         97.43767       96.20681       -6.66592
H         98.50320       98.23190       -5.62834
H         99.49635       97.20903       -4.56932
H         96.56337       99.07547       -4.89211
H         95.70810       98.39331       -3.50324
N         98.14181       94.09129       -4.88741
C         98.51865       92.76884       -4.40136
C         97.26847       91.95081       -4.16298
O         96.35284       92.47697       -3.54160
C         99.26658       92.90780       -3.05809
C         99.95630       91.60978       -2.69990
C         99.48791       90.79818       -1.65734
C        101.09026       91.20384       -3.42654
C        100.13613       89.59442       -1.35284
C        101.74489       90.01038       -3.11327
C        101.26947       89.19886       -2.07972
O        101.90802       88.04536       -1.79640
H         97.35543       94.55786       -4.43041
H         99.20615       92.26808       -5.11823
H         98.55107       93.23082       -2.26847
H        100.05335       93.69096       -3.12009
H         98.61448       91.09176       -1.09665
H        101.47467       91.81996       -4.23027
H         99.75994       88.96892       -0.55406
H        102.62223       89.71640       -3.67625
H        101.61134       87.45014       -1.09348
N         97.17663       90.64413       -4.53707
C         95.99254       89.85111       -4.23251
C         96.33187       88.80453       -3.18079
O         96.94501       87.80944       -3.54269
C         95.43666       89.18376       -5.50827
C         95.00111       90.20765       -6.56466
C         94.50122       89.51730       -7.80196
O         95.24524       88.79466       -8.44667
O         93.23254       89.70155       -8.21369
H         97.98211       90.18834       -4.99330
H         95.19370       90.50121       -3.84592
H         94.55812       88.55536       -5.23911
H         96.22023       88.52245       -5.94214
H         95.85556       90.85900       -6.84707
H         94.19322       90.84408       -6.14278
N         96.02500       88.92645       -1.84880
C         95.45216       90.11099       -1.19092
C         94.02522       90.38215       -1.64218
O         93.43807       89.56320       -2.33708
C         95.48145       89.93614        0.35903
C         96.91490       89.79001        0.91879
C         96.92845       89.24491        2.32459
O         96.54779       89.97687        3.38944
O         97.32724       88.10652        2.51347
H         96.29656       88.12963       -1.25313
H         96.07875       90.98973       -1.45243
H         94.89997       89.01654        0.59142
H         94.99295       90.78966        0.87832
H         97.47023       90.75004        0.86512
H         97.46665       89.05635        0.30213
N         93.42184       91.55620       -1.30049
C         92.08885       91.93021       -1.72956
H         91.45177       92.11391       -0.83996
H         92.14678       92.86518       -2.32698
H         91.60820       91.14926       -2.35520
H         93.94079       92.23956       -0.72956
Ca        96.24212       92.20375        3.40692
O         95.80986       90.11991        6.40109
H         95.66658       90.58846        7.26128
H         95.02432       89.52402        6.30991
O         96.90481       93.21727        7.16199
H         97.53265       93.18339        7.92701
H         96.00658       93.22518        7.57891
O         93.54091       92.25471        4.59503
H         93.18527       92.02745        3.69920
H         93.55956       91.39213        5.08039
O         95.36135       93.94427        1.38943
H         94.48979       93.47672        1.42841
H         95.88286       93.45335        0.70591
O         99.02015       91.08287        5.38029
H         98.96607       90.11064        5.20012
H         99.96822       91.31402        5.21203

Ca 1.0



