%chk=apoCaM-CA-Ng.loop2.water4.frame460.chk
%nprocshared=20
%mem=10GB
%nosave
#b3lyp/svp scf=(tight,noincore,xqc) Test 
#IOP(5/87=12) Density=Current Pop=(MK,readradii) iop(6/33=2) iop(6/42=6)

apoCaM-CA-Ng.loop2.water4.frame460 

   -2  1 
C         47.58326       71.57794       73.92056
C         47.64255       72.57429       72.80111
O         48.44221       72.40152       71.89220
H         46.56723       71.13666       73.97849
H         48.32281       70.76367       73.76232
H         47.81822       72.08442       74.88096
N         46.83219       73.66952       72.82270
C         46.86864       74.71593       71.81127
C         47.40134       75.97520       72.45955
O         46.72542       76.53955       73.30921
C         45.45152       74.92050       71.23164
C         45.34944       75.98305       70.16696
O         46.32859       76.61084       69.79505
O         44.14850       76.24782       69.61871
H         46.18444       73.78462       73.61647
H         47.55143       74.42434       70.98368
H         44.75903       75.19454       72.05853
H         45.10102       73.96033       70.79630
N         48.64812       76.43342       72.14506
C         49.25443       77.59027       72.79101
C         50.39088       77.15281       73.69233
O         50.74786       75.98163       73.69551
C         49.73893       78.57987       71.72976
H         49.21796       75.90511       71.46572
H         48.51133       78.10015       73.44164
H         50.18806       79.47831       72.20233
H         50.50290       78.10097       71.07884
H         48.88536       78.90293       71.09729
N         50.95241       78.04777       74.55407
C         51.96604       77.68393       75.53403
C         53.17405       78.58408       75.38410
O         53.52470       79.29141       76.32042
C         51.35698       77.77309       76.94905
C         50.18146       76.85174       77.09688
O         48.96759       77.35401       77.39121
O         50.31971       75.64816       76.94737
H         50.59496       79.01561       74.56852
H         52.31334       76.63646       75.38922
H         51.02898       78.81660       77.15024
H         52.12043       77.48994       77.70655
N         53.88460       78.58199       74.22239
C         55.09027       79.37011       74.03923
C         56.26056       78.44942       73.84520
O         56.94425       78.55153       72.83701
H         53.58154       77.97065       73.44857
H         55.30812       80.00198       74.92696
H         54.96501       80.04917       73.16816
N         56.54364       77.51313       74.79494
C         57.67578       76.60216       74.72015
C         57.18109       75.17297       74.63835
O         56.51185       74.71347       75.55421
C         58.56351       76.78858       75.96440
C         59.13931       78.18161       76.02108
N         58.83974       79.01706       77.04325
O         59.88626       78.55964       75.13091
H         55.92679       77.44490       75.61985
H         58.29222       76.81143       73.81875
H         59.40312       76.06057       75.94559
H         57.95785       76.58705       76.87660
H         58.20711       78.72348       77.80165
H         59.23752       79.96764       77.07298
N         57.47923       74.40546       73.54939
C         57.06662       73.01773       73.41781
C         57.76240       72.11768       74.41301
O         58.58089       72.59108       75.19304
H         58.00943       74.82197       72.76944
H         57.33321       72.65379       72.40176
H         55.96309       72.94652       73.53382
N         57.47626       70.78452       74.43555
C         58.10327       69.84545       75.36357
C         57.11746       69.32310       76.39907
O         57.55846       68.90647       77.45669
C         58.81163       68.68602       74.61823
C         57.85206       67.77489       73.83055
O         59.81757       69.18618       73.77256
H         56.77309       70.43547       73.76604
H         58.88525       70.37972       75.94872
H         59.30886       68.04610       75.37954
H         59.37587       69.66408       73.02247
H         58.42417       66.94800       73.35983
H         57.09495       67.32635       74.50484
H         57.32725       68.33292       73.02823
N         55.77213       69.31889       76.16302
C         54.77818       68.93912       77.16315
C         53.84228       70.11251       77.41404
O         53.96487       71.14021       76.76721
C         54.06080       67.60929       76.77230
C         53.58406       67.51009       75.29946
C         55.00792       66.42865       77.05538
C         52.56321       68.56310       74.88318
H         55.41794       69.61629       75.24802
H         55.26224       68.77344       78.15038
H         53.18726       67.46233       77.44458
H         53.10801       66.51515       75.15450
H         54.45538       67.56143       74.61045
H         55.92495       66.49014       76.43422
H         55.30765       66.42328       78.12604
H         54.50009       65.46247       76.84899
H         51.66791       68.51340       75.53667
H         52.99906       69.57930       74.91627
H         52.25419       68.36835       73.83395
N         52.93076       70.04435       78.42860
C         52.20448       71.22200       78.89244
C         52.03346       71.11902       80.40083
O         50.92493       71.20678       80.90868
C         50.87821       71.36723       78.11273
C         50.11544       72.63044       78.42880
O         48.92848       72.85383       77.83675
O         50.55396       73.45887       79.21210
H         52.90279       69.18794       79.00016
H         52.83178       72.12502       78.71784
H         50.23369       70.48793       78.33245
H         51.09547       71.37400       77.02282
N         53.12999       70.88430       81.17431
C         53.08829       70.70582       82.62184
C         52.09887       69.60605       82.99650
O         52.15261       68.54197       82.39676
C         54.51150       70.39408       83.14355
C         54.55077       70.17803       84.63791
C         54.93489       71.21762       85.50167
C         54.19699       68.92992       85.18203
C         54.94912       71.01385       86.88552
C         54.22278       68.72791       86.56381
C         54.59459       69.77016       87.41568
H         54.04184       70.79400       80.69757
H         52.77619       71.66871       83.07489
H         55.15176       71.26534       82.88031
H         54.95249       69.50764       82.63650
H         55.20557       72.18869       85.10657
H         53.90740       68.11071       84.53616
H         55.23325       71.82107       87.54777
H         53.95257       67.76312       86.97330
H         54.60849       69.61329       88.48631
N         51.17433       69.77739       83.99558
C         50.18903       68.77423       84.38377
C         49.18238       68.47562       83.28904
O         48.67674       67.36445       83.21952
C         49.43975       69.44344       85.54916
C         50.50434       70.33034       86.14761
C         51.12895       70.91814       84.89128
H         50.72082       67.86256       84.73678
H         48.65836       70.13734       85.15793
H         48.95246       68.73113       86.24861
H         50.13714       71.08424       86.87574
H         51.25779       69.67878       86.64726
H         50.47887       71.70320       84.44319
H         52.11898       71.33261       85.16381
N         48.76319       69.48559       82.47523
C         47.65160       69.39079       81.53356
C         47.87946       68.40218       80.39530
O         46.94752       68.20010       79.62758
C         47.34089       70.79370       80.95199
C         46.92224       71.79348       82.05108
C         46.70443       73.16466       81.49172
O         47.63631       73.77248       80.99258
O         45.49545       73.75022       81.57847
H         49.22211       70.39834       82.59095
H         46.75526       69.04817       82.09696
H         46.50494       70.72479       80.22105
H         48.24003       71.16659       80.41313
H         47.69570       71.89230       82.83891
H         45.98881       71.43066       82.53122
N         49.05652       67.74056       80.20766
C         49.22215       66.78095       79.13596
H         50.24569       66.35162       79.16236
H         48.48866       65.95340       79.25277
H         49.06557       67.27486       78.15341
H         49.86018       67.90705       80.82713
Ca        47.79708       74.72989       78.38617
O         47.14310       74.82891       75.67653
H         46.18682       75.04702       75.81297
H         47.60107       75.70580       75.67714
O         45.90269       77.10034       78.31742
H         46.00447       77.60719       79.16189
H         45.09110       76.54967       78.45339
O         45.24961       73.11278       77.80850
H         45.58740       72.20056       77.99279
H         45.01356       73.47515       78.69919
O         49.17644       76.57494       80.62335
H         49.66539       77.31950       80.19119
H         49.87358       75.89812       80.81397

Ca 1.0



