%chk=apoCaM-CA-Ng.loop2.water3.frame691.chk
%nprocshared=20
%mem=10GB
%nosave
#b3lyp/svp scf=(tight,noincore,xqc) Test 
#IOP(5/87=12) Density=Current Pop=(MK,readradii) iop(6/33=2) iop(6/42=6)

apoCaM-CA-Ng.loop2.water3.frame691 

   -2  1 
C         76.32753       85.06049       93.94603
C         75.48284       85.58734       95.06731
O         74.73890       86.53710       94.86592
H         77.40066       85.12251       94.22259
H         76.06194       83.99941       93.75297
H         76.16009       85.64416       93.01597
N         75.54640       85.00134       96.29550
C         74.74792       85.44582       97.43486
C         73.25301       85.17065       97.24962
O         72.49063       85.55605       98.12548
C         75.25440       84.73994       98.71688
C         74.59122       85.24180       99.97187
O         73.88701       84.39558      100.74784
O         74.68738       86.41595      100.29228
H         76.21663       84.22681       96.42587
H         74.91151       86.53985       97.56079
H         76.34633       84.91712       98.82379
H         75.08772       83.64414       98.62079
N         72.75257       84.50921       96.16150
C         71.34030       84.17222       96.01866
C         71.17919       82.67446       95.77544
O         72.15205       82.04449       95.38242
C         70.76791       84.94937       94.82898
H         73.38012       84.21215       95.40293
H         70.79871       84.46790       96.93610
H         70.88824       86.04088       94.99632
H         71.30436       84.67721       93.89324
H         69.69151       84.73639       94.69008
N         69.99730       82.00277       95.91211
C         68.76009       82.52185       96.49198
C         68.28002       81.63184       97.64616
O         68.83151       80.56602       97.87957
C         67.65597       82.71671       95.41187
C         67.84672       81.98777       94.09547
O         67.93259       80.64605       93.99771
O         67.92706       82.64524       93.06926
H         69.98847       81.01602       95.61314
H         68.91944       83.50885       96.96417
H         67.64584       83.79850       95.15311
H         66.64832       82.51641       95.83281
N         67.25150       82.05493       98.43867
C         66.64854       81.27850       99.51844
C         67.63415       80.89776      100.61592
O         68.27856       81.79942      101.13133
H         66.84946       82.98703       98.25468
H         66.12435       80.41365       99.08018
H         65.86291       81.90655       99.99117
N         67.81735       79.61678      101.07586
C         67.10899       78.43281      100.59242
C         68.00471       77.20615      100.69596
O         67.62383       76.19396      101.26844
C         65.74960       78.26478      101.31859
C         65.89805       77.92262      102.78823
N         65.40283       76.75882      103.27743
O         66.47370       78.69533      103.53939
H         68.51392       79.47681      101.82579
H         66.93280       78.54168       99.51027
H         65.18100       77.45541      100.81172
H         65.15573       79.19887      101.22310
H         64.91357       76.09008      102.66418
H         65.51276       76.51743      104.27379
N         69.25063       77.25684      100.15905
C         70.20726       76.17154      100.24532
C         69.79467       74.97707       99.42519
O         69.79823       73.87076       99.94134
H         69.55797       78.12884       99.70159
H         70.38545       75.89700      101.30798
H         71.17040       76.52893       99.82146
N         69.52867       75.14002       98.10120
C         69.32456       74.05082       97.13951
C         69.53914       74.56216       95.71133
O         69.67961       75.75941       95.49188
C         67.94086       73.32721       97.25774
C         67.75601       72.41120       98.47735
O         66.87890       74.23831       97.15761
H         69.60187       76.10813       97.75416
H         70.14145       73.31024       97.28531
H         67.85642       72.62479       96.40274
H         66.81591       74.71040       98.02918
H         67.68846       72.97728       99.42421
H         66.80171       71.85071       98.37446
H         68.58370       71.67086       98.52793
N         69.61784       73.67836       94.67965
C         69.95722       74.06900       93.31789
C         68.68909       74.17225       92.49937
O         67.96035       73.19574       92.38927
C         70.98261       73.06113       92.71046
C         71.26579       73.38071       91.21795
C         72.28284       73.07742       93.53959
C         72.21282       72.39258       90.53478
H         69.48068       72.67366       94.87011
H         70.44713       75.06855       93.31265
H         70.54423       72.03920       92.76172
H         71.67597       74.40770       91.11764
H         70.31039       73.32572       90.65603
H         72.76700       74.07623       93.48429
H         72.07716       72.84018       94.60384
H         72.99864       72.31106       93.18123
H         71.81137       71.35992       90.61169
H         72.30802       72.65443       89.46055
H         73.22918       72.43304       90.97339
N         68.40186       75.33980       91.85196
C         67.25960       75.52626       90.97004
C         67.71024       75.65314       89.51592
O         66.85117       75.78759       88.65578
C         66.47645       76.79289       91.36803
C         66.17810       76.85949       92.83858
O         66.58765       77.80288       93.49515
O         65.46770       75.88872       93.44143
H         69.05206       76.12937       91.94623
H         66.58134       74.64717       91.04241
H         65.52234       76.82614       90.79759
H         67.07378       77.69130       91.09288
N         69.03148       75.58422       89.16015
C         69.50770       75.62567       87.78634
C         70.62958       76.66348       87.65109
O         71.76089       76.27905       87.38508
C         69.95938       74.19665       87.40501
C         70.40202       74.09261       85.96435
C         69.51711       74.41416       84.91880
C         71.70574       73.67022       85.65281
C         69.93535       74.32809       83.58882
C         72.11802       73.58128       84.32009
C         71.23482       73.91293       83.28928
H         69.75034       75.43104       89.87803
H         68.68647       75.88647       87.09007
H         69.10547       73.49914       87.55168
H         70.77230       73.87639       88.09099
H         68.50492       74.73501       85.12848
H         72.40359       73.41187       86.43984
H         69.25058       74.58404       82.79073
H         73.12349       73.25670       84.08673
H         71.55635       73.84690       82.25834
N         70.40618       78.00819       87.80156
C         71.42415       79.03693       87.58450
C         72.61378       79.04012       88.53553
O         73.47272       79.89610       88.37078
C         70.65084       80.34947       87.74954
C         69.27321       79.95962       87.26411
C         69.09416       78.60459       87.94116
H         71.78256       78.92829       86.53566
H         70.54725       80.58535       88.83480
H         71.11540       81.22093       87.23984
H         68.47214       80.69571       87.48325
H         69.33148       79.80407       86.16140
H         68.87142       78.72601       89.02421
H         68.28069       78.05259       87.42896
N         72.73514       78.14703       89.55837
C         73.87577       78.13117       90.46621
C         75.12077       77.83400       89.65511
O         76.05136       78.62825       89.68383
C         73.69999       77.08730       91.60236
C         72.84031       77.54883       92.81146
C         71.37060       77.82907       92.62293
O         70.64025       78.21137       93.68621
O         70.81857       77.71658       91.54734
H         72.01685       77.42799       89.67083
H         74.00351       79.12465       90.95368
H         74.70652       76.92460       92.05013
H         73.36540       76.10841       91.19931
H         73.30030       78.47009       93.22951
H         72.91308       76.75553       93.58685
N         75.18662       76.72798       88.86566
C         76.33194       76.45604       88.02565
H         77.23975       76.32154       88.65008
H         76.15723       75.53248       87.43469
H         76.48991       77.30033       87.31947
H         74.38707       76.07752       88.83277
Ca        68.04429       79.13755       95.65907
O         66.84188       77.18295       97.34728
H         66.79056       76.78026       96.44463
H         66.18375       77.92165       97.32571
O         71.13266       78.76640       96.51226
H         70.80846       78.59523       97.43140
H         71.76225       78.02555       96.32642
O         65.21390       80.02151       95.49932
H         64.95668       80.15226       96.44634
H         64.73778       79.19915       95.22151

Ca 1.0



