%chk=apoCaM-CA-Ng.loop3.water3.frame682.chk
%nprocshared=20
%mem=10GB
%nosave
#b3lyp/svp scf=(tight,noincore,xqc) Test 
#IOP(5/87=12) Density=Current Pop=(MK,readradii) iop(6/33=2) iop(6/42=6)

apoCaM-CA-Ng.loop3.water3.frame682 

   0  1 
C         77.30574       68.56169       96.64343
C         77.28214       69.32188       97.93651
O         76.64659       70.36285       98.01032
H         78.35084       68.44429       96.29076
H         76.86223       67.55529       96.80597
H         76.71321       69.08408       95.86255
N         77.94500       68.82991       99.01842
C         77.87676       69.43218      100.34658
C         78.42460       70.84856      100.33206
O         79.59473       71.03673      100.03029
C         78.59608       68.50900      101.35231
C         78.28119       68.79178      102.78724
O         78.58860       67.97037      103.63502
O         77.57482       69.87434      103.14743
H         78.46684       67.94758       98.89580
H         76.80606       69.45889      100.63167
H         79.69308       68.48477      101.17904
H         78.19894       67.48591      101.17716
N         77.59004       71.90379      100.56993
C         77.98940       73.29023      100.37046
C         78.89460       73.78995      101.49007
O         79.51887       74.82573      101.30228
C         76.72404       74.16635      100.17500
C         76.98357       75.52878       99.51202
C         75.65506       76.26421       99.25868
C         75.86551       77.55061       98.44765
N         74.59849       78.25398       98.24075
H         76.60454       71.71075      100.77459
H         78.54460       73.31391       99.40585
H         76.18519       74.28818      101.13803
H         76.05223       73.61877       99.47560
H         77.48314       75.34805       98.53457
H         77.64291       76.16125      100.14184
H         75.17970       76.50501      100.23462
H         74.96646       75.60575       98.68321
H         76.30255       77.28935       97.45732
H         76.57450       78.22185       98.97926
H         73.91513       77.63698       97.74389
H         74.19974       78.55092       99.16093
H         74.76915       79.10471       97.65701
N         79.01152       73.12202      102.68320
C         79.92458       73.53627      103.74711
C         80.93251       72.45170      104.12336
O         81.89322       72.79410      104.79760
C         79.15133       74.05475      104.97953
C         78.24346       73.03678      105.61441
O         78.75131       71.92123      106.16021
O         77.04277       73.24187      105.68308
H         78.41666       72.30114      102.85502
H         80.53590       74.39211      103.38483
H         78.54278       74.92911      104.66226
H         79.87210       74.40704      105.74952
N         80.79719       71.13992      103.74929
C         81.82048       70.13734      104.01011
C         81.46207       69.10613      105.06431
O         82.33923       68.29888      105.34265
H         79.96676       70.82985      103.23720
H         82.75196       70.62309      104.37234
H         82.07848       69.63278      103.05392
N         80.27461       69.08523      105.75195
C         80.11319       68.25022      106.94704
C         78.70198       67.71623      107.14369
O         77.74621       68.42804      106.87492
C         80.59947       69.04731      108.19831
C         79.50029       69.56914      109.10599
N         79.23220       70.88814      109.21234
O         78.84856       68.77392      109.76819
H         79.56515       69.79537      105.54330
H         80.79277       67.37452      106.85229
H         81.26588       69.87315      107.86289
H         81.23422       68.39133      108.83181
H         79.75235       71.58258      108.66046
H         78.47814       71.20942      109.83884
N         78.51746       66.54840      107.82034
C         77.23395       66.09355      108.33209
C         76.18291       65.94473      107.26289
O         76.41987       65.26578      106.27424
H         79.34436       65.98259      108.06440
H         76.88067       66.80632      109.11057
H         77.38037       65.11198      108.83099
N         74.96094       66.52644      107.43401
C         73.88642       66.42305      106.45723
C         74.26422       67.22138      105.18057
O         74.27340       68.58115      105.52837
C         72.56163       66.97590      107.05609
C         72.01594       66.13654      108.18596
C         71.42438       64.88939      107.91953
C         72.05313       66.60800      109.50868
C         70.86921       64.13390      108.95842
C         71.51327       65.84355      110.54756
C         70.91313       64.60952      110.27727
O         70.37796       63.89596      111.28883
H         74.77993       67.03694      108.31255
H         73.73761       65.35049      106.19920
H         71.76435       67.03996      106.28377
H         72.74583       68.01342      107.41163
H         71.36978       64.51406      106.90494
H         72.50377       67.56531      109.73788
H         70.39925       63.18357      108.73699
H         71.55338       66.21595      111.56344
H         69.93727       63.04641      111.14436
N         73.25899       66.97468      104.12807
C         73.63695       67.24366      102.72268
C         73.68502       68.73266      102.44708
O         74.63610       69.38128      102.84337
C         74.94782       66.53277      102.24566
C         75.22300       66.75870      100.72838
C         74.95713       65.03015      102.57063
C         74.17539       66.18226       99.77038
H         72.94457       65.97715      104.17118
H         72.79645       66.82826      102.12763
H         75.80454       66.98012      102.79806
H         76.20495       66.30708      100.46934
H         75.29366       67.84322      100.52226
H         75.90427       64.57076      102.21417
H         74.90875       64.86457      103.66593
H         74.10002       64.50956      102.09767
H         73.18169       66.64596       99.93114
H         74.48118       66.40020       98.72497
H         74.09594       65.08183       99.87758
N         72.68229       69.35188      101.76695
C         72.71906       70.78938      101.48959
C         71.39812       71.41989      101.05880
O         71.36248       72.64077      100.98940
C         73.78112       71.08055      100.41879
O         73.40502       70.47310       99.21232
H         71.88638       68.76566      101.50684
H         72.98262       71.30110      102.44255
H         74.74467       70.66246      100.75775
H         73.89470       72.17728      100.26772
H         74.21256       70.45986       98.63912
N         70.28040       70.70030      100.74364
C         69.02958       71.34227      100.36672
C         68.43004       72.08193      101.56070
O         68.82714       71.78984      102.68145
C         68.04761       70.26163       99.88922
H         70.29706       69.67821      100.73295
H         69.24432       72.02350       99.52138
H         68.49016       69.70662       99.03487
H         67.84617       69.54011      100.71111
H         67.08668       70.68197       99.55481
N         67.43445       73.01064      101.45248
C         66.96039       73.59711      100.20242
C         65.62549       74.30150      100.42460
O         65.55053       75.13149      101.31976
C         67.97278       74.63001       99.68754
H         67.03965       73.37310      102.33506
H         66.85611       72.82025       99.43394
H         68.10747       75.44845      100.42614
H         68.96526       74.18193       99.49499
H         67.60736       75.06596       98.73248
N         64.52372       74.08522       99.64353
C         64.50021       73.21525       98.47028
C         64.52386       71.73272       98.82531
O         64.63856       70.93138       97.90859
C         63.26448       73.50954       97.59022
C         63.27435       74.95034       97.04761
C         62.09828       75.19957       96.14905
O         61.95173       74.54327       95.13005
O         61.20816       76.16301       96.45386
H         63.68312       74.64467       99.85797
H         65.39219       73.44666       97.84583
H         62.33387       73.32630       98.17219
H         63.27505       72.81856       96.71811
H         64.20614       75.12585       96.46732
H         63.24482       75.67855       97.88493
N         64.41315       71.28575      100.11151
C         64.44234       69.87921      100.46631
H         65.27226       69.69777      101.18033
H         63.48415       69.60019      100.95114
H         64.59379       69.21881       99.58616
H         64.29132       71.95371      100.88432
Ca        76.19783       69.59615      104.87725
O         75.69405       70.79166      107.60468
H         76.36476       70.98212      108.30695
H         75.11748       70.08695      107.99382
O         73.57083       71.43870      105.32018
H         73.31554       72.02443      106.07595
H         72.83003       70.78575      105.24943
O         75.28866       72.59677      103.18845
H         76.13454       73.10673      103.23334
H         74.60904       73.27060      102.93520

Ca 1.0



