%chk=apoCaM-CA-Ng.loop3.water3.frame609.chk
%nprocshared=20
%mem=10GB
%nosave
#b3lyp/svp scf=(tight,noincore,xqc) Test 
#IOP(5/87=12) Density=Current Pop=(MK,readradii) iop(6/33=2) iop(6/42=6)

apoCaM-CA-Ng.loop3.water3.frame609 

   0  1 
C         90.88476       36.18373       78.43357
C         92.25159       36.61708       78.87680
O         92.97313       37.19915       78.07925
H         90.29814       37.07458       78.12393
H         90.97238       35.48802       77.57384
H         90.33599       35.67124       79.25172
N         92.66907       36.39078       80.15376
C         93.96242       36.84365       80.64819
C         95.08826       36.10513       79.93960
O         95.14360       34.88556       80.02357
C         94.03553       36.65538       82.17880
C         95.21575       37.32690       82.82918
O         95.36478       37.25146       84.16486
O         96.02320       37.96212       82.17206
H         92.02096       35.92367       80.80724
H         94.02566       37.93114       80.45956
H         94.02750       35.57303       82.42692
H         93.13593       37.11778       82.62673
N         96.01296       36.78721       79.20295
C         97.08281       36.12143       78.45707
C         98.04944       35.35400       79.34578
O         98.74370       34.48238       78.84173
C         97.86887       37.13718       77.59878
C         98.68408       38.14633       78.44491
C         99.43097       39.17806       77.58969
C         98.48457       40.17910       76.90717
N         99.23542       41.12627       76.08559
H         95.91823       37.81172       79.13679
H         96.59166       35.39851       77.76758
H         97.13464       37.66068       76.95470
H         98.57400       36.58856       76.93561
H         99.44850       37.58194       79.02118
H         98.03926       38.68057       79.17282
H        100.05336       38.64852       76.83611
H        100.11055       39.75414       78.25613
H         97.91904       40.73466       77.68927
H         97.75492       39.65513       76.25718
H         99.72482       40.61433       75.31563
H         98.57024       41.81381       75.66367
H         99.93431       41.64130       76.66845
N         98.20802       35.69126       80.65509
C         99.15514       35.04940       81.55762
C         98.46288       34.40228       82.75016
O         99.14965       33.73188       83.50253
C        100.22949       36.07345       81.99474
C         99.64809       37.37962       82.47690
O         98.80230       37.42199       83.51973
O         99.91266       38.41403       81.88491
H         97.65670       36.47408       81.02709
H         99.68447       34.21893       81.04011
H        100.86510       36.29792       81.10973
H        100.88746       35.63214       82.77416
N         97.11965       34.50863       82.96790
C         96.39431       33.83115       84.03351
C         96.68145       34.28450       85.45777
O         96.00233       33.77321       86.33703
H         96.54402       35.03965       82.30607
H         96.56589       32.73553       83.95449
H         95.30945       34.00795       83.86596
N         97.65067       35.19000       85.79199
C         97.92319       35.58958       87.17473
C         97.88234       37.10554       87.34203
O         97.74375       37.83468       86.37221
C         99.31183       35.06812       87.62504
C         99.38029       33.56364       87.76954
N         99.28988       32.74272       86.70116
O         99.54496       33.07974       88.87953
H         98.24953       35.58595       85.05977
H         97.15838       35.17213       87.86577
H         99.53856       35.48427       88.62868
H        100.10660       35.42576       86.93457
H         99.18438       33.12154       85.75821
H         99.34823       31.72041       86.81544
N         98.01827       37.63805       88.59090
C         98.10553       39.05641       88.89498
C         96.87290       39.83170       88.50557
O         95.76548       39.35671       88.71396
H         98.09632       36.99569       89.39322
H         99.01187       39.49336       88.42079
H         98.22780       39.16365       89.99412
N         97.00501       41.09512       88.01206
C         95.87237       41.93577       87.63549
C         95.18084       41.39746       86.39032
O         95.60763       40.39810       85.83077
C         96.36051       43.39270       87.40107
C         96.77587       44.06533       88.69198
C         95.81237       44.32899       89.68364
C         98.10592       44.46038       88.91266
C         96.17143       44.97126       90.87161
C         98.46448       45.09905       90.10686
C         97.49655       45.35741       91.08953
O         97.82503       45.97681       92.24174
H         97.95631       41.48899       87.93869
H         95.12522       41.94596       88.45890
H         95.56070       44.03038       86.97183
H         97.19258       43.37753       86.66353
H         94.77745       44.04818       89.53287
H         98.86554       44.27394       88.16451
H         95.41666       45.17244       91.62217
H         99.49329       45.39607       90.26668
H         98.72893       46.26356       92.43475
N         94.08609       42.04834       85.90614
C         93.33440       41.69199       84.71034
C         94.19922       41.74739       83.45948
O         94.98009       40.84167       83.20593
C         92.54069       40.35480       84.85475
C         91.81938       40.00549       83.51913
C         91.53411       40.48982       86.01366
C         90.91437       38.77425       83.57778
H         93.75475       42.88296       86.41284
H         92.55679       42.48086       84.59235
H         93.23989       39.52362       85.09381
H         92.59098       39.79913       82.74784
H         91.20673       40.86624       83.17405
H         90.99667       39.53639       86.19044
H         92.05492       40.74399       86.95973
H         90.78952       41.28457       85.78940
H         90.03424       38.96193       84.22517
H         90.53568       38.55185       82.55679
H         91.46673       37.89223       83.95861
N         94.04295       42.79465       82.60377
C         94.59861       42.86340       81.25502
C         94.40791       44.25126       80.66977
O         95.35826       44.79054       80.12100
C         93.87401       41.87699       80.31656
O         94.10785       40.54921       80.69306
H         93.45799       43.57458       82.93315
H         95.68778       42.63476       81.26284
H         94.24518       42.05076       79.27634
H         92.77798       42.06594       80.31771
H         94.35469       40.05474       79.86901
N         93.19864       44.88269       80.74822
C         92.89119       46.15651       80.11389
C         93.95977       47.22088       80.36204
O         94.30232       47.44134       81.51503
C         91.54132       46.68557       80.61237
H         92.43234       44.41623       81.25595
H         92.78193       45.92712       79.04271
H         91.28475       47.62880       80.08385
H         90.73800       45.94453       80.41833
H         91.58461       46.88876       81.70504
N         94.54494       47.93716       79.34972
C         94.13938       47.85400       77.94711
C         94.20658       49.19911       77.24015
O         95.03877       50.01839       77.60581
C         94.98077       46.81352       77.20779
H         95.27921       48.61503       79.60860
H         93.07396       47.58862       77.92270
H         94.86805       45.81988       77.68753
H         94.65471       46.72396       76.15051
H         96.05257       47.10275       77.22668
N         93.34174       49.54706       76.23589
C         92.25188       48.70072       75.74243
C         90.96057       48.92471       76.51894
O         89.99382       48.22850       76.23559
C         92.03955       48.81479       74.20931
C         91.52912       50.16530       73.66864
C         92.57757       51.23796       73.64698
O         93.60401       51.07849       73.00488
O         92.38235       52.39041       74.31517
H         93.40513       50.51264       75.89285
H         92.51858       47.63491       75.88435
H         91.26393       48.06072       73.94595
H         92.96462       48.51761       73.66886
H         90.63799       50.49280       74.24615
H         91.21097       50.01499       72.61441
N         90.86758       49.84200       77.52597
C         89.66352       50.04956       78.30555
H         88.82876       49.39058       77.98655
H         89.87947       49.84243       79.37482
H         89.33621       51.10464       78.20238
H         91.67948       50.42341       77.77700
Ca        97.79790       39.38950       84.00298
O         97.75322       42.39203       84.02607
H         97.25797       43.24890       84.01813
H         98.36912       42.45171       83.25309
O        100.12878       40.31757       85.56233
H         99.71812       41.00515       86.14410
H        100.14760       40.73361       84.66372
O         97.66973       40.54154       81.16487
H         97.86370       41.17613       80.43089
H         96.74323       40.24156       80.99197

Ca 1.0



