%chk=apoCaM-CA-Ng.loop3.water4.frame1019.chk
%nprocshared=20
%mem=10GB
%nosave
#b3lyp/svp scf=(tight,noincore,xqc) Test 
#IOP(5/87=12) Density=Current Pop=(MK,readradii) iop(6/33=2) iop(6/42=6)

apoCaM-CA-Ng.loop3.water4.frame1019 

   0  1 
C         42.51635       20.78412       32.65383
C         42.14172       20.67505       31.20681
O         41.79159       21.68001       30.60362
H         42.43033       21.83532       33.00401
H         41.83386       20.15130       33.25922
H         43.56155       20.44136       32.79984
N         42.19268       19.46738       30.57723
C         41.80606       19.29336       29.18176
C         40.34693       19.67742       28.99682
O         40.07504       20.56358       28.20570
C         42.16172       17.87514       28.66474
C         41.51775       16.71355       29.37449
O         42.28394       15.84029       30.05650
O         40.31864       16.51113       29.28187
H         42.51948       18.64954       31.11490
H         42.42591       19.97872       28.55830
H         43.26387       17.76496       28.77080
H         41.92587       17.80259       27.58123
N         39.37028       19.12951       29.77039
C         37.97389       19.55231       29.73289
C         37.22008       18.86685       28.59518
O         36.44091       17.95953       28.85549
C         37.34105       19.28437       31.11961
C         35.92973       19.87985       31.25103
C         35.39470       19.70067       32.67516
C         33.99342       20.30777       32.81477
N         33.49961       20.16986       34.18401
H         39.66148       18.48267       30.51840
H         37.91941       20.65763       29.60894
H         37.98577       19.77651       31.88232
H         37.32394       18.19296       31.33569
H         35.23622       19.39301       30.53381
H         35.97122       20.96721       31.01989
H         36.08258       20.20682       33.38805
H         35.35428       18.61774       32.92488
H         33.29561       19.79370       32.11672
H         34.02661       21.38756       32.54689
H         32.54182       20.58442       34.24546
H         33.45080       19.15955       34.44982
H         34.13094       20.67878       34.84494
N         37.36741       19.28723       27.30470
C         36.63953       18.70146       26.18115
C         37.59469       18.14442       25.13828
O         38.80216       18.21578       25.31930
C         35.61229       19.71508       25.61106
C         36.11195       21.01915       24.97722
O         36.95256       20.81868       23.88005
O         36.76863       21.86844       25.87159
H         37.99057       20.07937       27.11072
H         36.03152       17.83747       26.52738
H         34.91688       19.99601       26.43093
H         34.99543       19.20830       24.84103
N         37.11108       17.54671       24.01375
C         37.96951       16.98272       22.98904
C         38.66893       15.73803       23.50126
O         37.94979       14.82366       23.87921
H         36.09276       17.49825       23.86245
H         38.62946       17.77408       22.59658
H         37.33502       16.65688       22.13523
N         40.02367       15.54441       23.52735
C         41.06662       16.48810       23.13057
C         42.10511       16.61954       24.24700
O         42.52899       15.59805       24.76963
C         41.77400       15.98801       21.86065
C         40.83600       15.94966       20.67931
N         40.62082       14.79884       20.00262
O         40.27542       16.97512       20.32006
H         40.34734       14.61302       23.83538
H         40.65601       17.47466       22.87908
H         42.22131       14.98690       22.04351
H         42.59727       16.69260       21.60881
H         41.09176       13.92602       20.28043
H         39.98602       14.78301       19.19067
N         42.63018       17.81826       24.63955
C         42.26385       19.07363       24.00891
C         43.00811       20.28555       24.52993
O         43.87259       20.18215       25.38972
H         43.34161       17.81114       25.38685
H         41.18034       19.24234       24.16861
H         42.46623       19.00807       22.91794
N         42.65765       21.50588       24.03718
C         43.22964       22.77318       24.48793
C         42.27951       23.94000       24.16485
O         41.31975       23.75935       23.42695
C         44.60601       22.95062       23.80220
C         45.32997       24.22315       24.16215
C         45.52116       25.21943       23.18919
C         45.82474       24.42731       25.46049
C         46.18499       26.40468       23.51133
C         46.49681       25.61287       25.77888
C         46.67573       26.60699       24.80432
O         47.31326       27.75807       25.09749
H         41.89277       21.51511       23.34973
H         43.31612       22.73963       25.59708
H         44.42154       22.92783       22.70496
H         45.27250       22.09209       24.03588
H         45.14699       25.08494       22.18179
H         45.69386       23.66848       26.22171
H         46.31584       27.16725       22.75382
H         46.87585       25.75913       26.78224
H         47.66557       27.94164       25.97974
N         42.45891       25.16805       24.73410
C         41.56778       26.29809       24.46298
C         41.58001       26.68129       22.99312
O         42.62122       27.05641       22.47298
C         41.88131       27.57035       25.32938
C         41.41608       27.44443       26.79982
C         43.36566       27.99794       25.30138
C         39.89032       27.38612       26.94418
H         43.22529       25.27862       25.40816
H         40.53557       25.98179       24.69771
H         41.29976       28.41913       24.90131
H         41.73030       28.36229       27.34419
H         41.88852       26.56830       27.29247
H         44.01828       27.25692       25.80198
H         43.73650       28.16716       24.27380
H         43.48965       28.95766       25.84626
H         39.42288       28.26874       26.45451
H         39.46426       26.46836       26.50631
H         39.61540       27.39838       28.01869
N         40.42283       26.63944       22.26671
C         40.34169       27.14953       20.90088
C         39.04327       26.74745       20.20374
O         38.13141       26.23527       20.83393
C         40.46842       28.69191       20.94945
O         40.43498       29.25629       19.66918
H         39.57764       26.25950       22.71624
H         41.16759       26.69000       20.31435
H         41.42101       28.98648       21.43815
H         39.62084       29.08758       21.55848
H         40.33151       30.23489       19.80339
N         38.92910       26.92533       18.85633
C         37.77056       26.56599       18.04794
C         36.55708       27.40444       18.40315
O         35.48769       26.85622       18.63706
C         37.49501       25.05307       18.11215
H         39.73301       27.32155       18.34731
H         38.01821       26.80902       16.99109
H         38.40476       24.48702       17.82188
H         37.19189       24.73856       19.13093
H         36.67380       24.78192       17.41560
N         36.66021       28.76791       18.44158
C         35.54384       29.68538       18.66907
C         34.84098       29.51916       20.01793
O         33.86360       30.22280       20.23745
C         34.53206       29.55124       17.51642
H         37.58235       29.19212       18.25767
H         35.93596       30.72597       18.62834
H         33.72634       30.30976       17.61214
H         35.04306       29.71742       16.54374
H         34.05853       28.54806       17.49869
N         35.23290       28.60383       20.95452
C         34.42780       28.31348       22.13828
C         34.41315       29.42684       23.17461
O         33.64902       29.31464       24.12419
C         34.87388       26.98382       22.78526
C         36.24650       27.05663       23.48289
C         36.67469       25.72639       24.03962
O         35.98420       24.72762       23.90481
O         37.84174       25.63598       24.69958
H         36.05843       28.02134       20.77817
H         33.38693       28.14667       21.77966
H         34.89474       26.20474       21.98977
H         34.11791       26.67727       23.54115
H         36.19520       27.78007       24.32405
H         37.02499       27.40748       22.77783
N         35.24792       30.50113       23.10250
C         35.26182       31.51834       24.13189
H         34.26724       32.00774       24.19814
H         35.51227       31.05820       25.11275
H         36.02787       32.28714       23.89829
H         35.91413       30.59526       22.32286
Ca        38.18330       22.68599       24.28957
O         40.20341       21.33759       25.38933
H         40.87440       21.55354       26.08155
H         39.80660       20.47924       25.66987
O         37.26228       23.14082       21.36385
H         37.80396       22.75837       20.62883
H         37.84801       23.82911       21.76734
O         39.67344       21.32070       22.00469
H         40.22731       22.00973       21.55795
H         40.11943       20.46346       21.79090
O         39.53602       23.89156       26.81256
H         40.48473       23.89662       27.09591
H         39.03557       23.59679       27.61409

Ca 1.0



