%chk=apoCaM-CA-Ng.loop1.water3.frame1254.chk
%nprocshared=20
%mem=10GB
%nosave
#b3lyp/svp scf=(tight,noincore,xqc) Test 
#IOP(5/87=12) Density=Current Pop=(MK,readradii) iop(6/33=2) iop(6/42=6)

apoCaM-CA-Ng.loop1.water3.frame1254 

   0  1 
C         22.03163       53.20066      118.69631
C         23.09607       54.16007      119.12623
O         23.84413       54.61672      118.27526
H         21.03694       53.64202      118.90762
H         22.10897       52.99971      117.60467
H         22.14297       52.24076      119.24129
N         23.25227       54.48273      120.44542
C         24.28589       55.40646      120.91045
C         25.47036       54.65106      121.47963
O         25.99497       55.00943      122.52631
C         23.71891       56.48015      121.87002
C         23.22880       55.92196      123.18578
O         22.28894       55.14505      123.22641
O         23.82207       56.29808      124.33525
H         22.65382       54.00435      121.13185
H         24.69967       55.94864      120.03492
H         22.89119       57.02976      121.37430
H         24.52893       57.21180      122.08554
N         25.97490       53.59554      120.78887
C         27.20170       52.91115      121.15638
C         28.37900       53.85135      120.95318
O         29.09785       54.05874      121.91950
C         27.32768       51.55702      120.41783
C         26.19174       50.63122      120.89890
C         26.18647       49.25754      120.23015
C         25.05979       48.40364      120.83726
N         24.98268       47.08989      120.20461
H         25.47371       53.27567      119.94833
H         27.16489       52.64370      122.23822
H         28.29976       51.08305      120.67758
H         27.28867       51.67629      119.31694
H         25.20647       51.10644      120.70304
H         26.29922       50.49066      121.99782
H         27.16272       48.75198      120.39381
H         26.02064       49.38238      119.13777
H         24.08338       48.92408      120.71180
H         25.24492       48.27411      121.92788
H         25.88979       46.58221      120.31576
H         24.22463       46.53679      120.66676
H         24.75324       47.19659      119.19007
N         28.63964       54.53756      119.79773
C         27.89386       54.47581      118.53945
C         27.13638       55.77820      118.27939
O         27.20821       56.69728      119.08344
C         28.84439       54.07202      117.39402
C         30.08752       54.90742      117.36544
O         30.01390       56.24038      117.22448
O         31.17150       54.37588      117.53488
H         29.43013       55.20122      119.83402
H         27.11051       53.70730      118.56588
H         28.32975       54.12110      116.41246
H         29.14947       53.01412      117.55464
N         26.29349       55.87046      117.21185
C         25.36379       56.97274      116.98155
C         26.00331       58.29341      116.62283
O         27.21157       58.39138      116.58121
H         26.22197       55.06403      116.57235
H         24.71730       57.10845      117.87331
H         24.71084       56.69410      116.12730
N         25.18867       59.34369      116.28773
C         25.64537       60.66782      115.82233
C         24.49095       61.41170      115.10550
O         23.34781       61.01441      115.25902
C         26.16935       61.51948      117.01328
C         27.44685       60.97583      117.58130
O         27.47286       60.53883      118.71898
O         28.56089       60.96537      116.81386
H         24.18190       59.13537      116.28859
H         26.43360       60.49908      115.06662
H         25.37272       61.55890      117.78877
H         26.38309       62.56177      116.72573
N         24.67507       62.49315      114.27733
C         25.95058       63.07535      113.90339
C         26.80735       62.13820      113.08761
O         26.32717       61.11804      112.60922
H         23.83308       62.93235      113.87069
H         26.49300       63.39869      114.80665
H         25.79103       63.99278      113.29519
N         28.12784       62.41864      112.93739
C         29.07963       61.54196      112.25892
C         29.05381       60.15300      112.87618
O         28.98436       60.05657      114.08075
C         30.50300       62.14799      112.35036
C         31.54009       61.30579      111.60345
O         30.90149       62.27095      113.69360
H         28.47938       63.28398      113.37849
H         28.80729       61.47214      111.18296
H         30.48958       63.14939      111.85685
H         30.78380       63.21914      113.96158
H         32.53473       61.79544      111.66231
H         31.62706       60.29309      112.05144
H         31.25504       61.20449      110.53506
N         29.11362       59.03987      112.09595
C         29.08836       57.65145      112.56490
C         30.33724       57.31502      113.45446
O         30.03929       57.29624      114.83752
C         27.72584       57.26705      113.20731
C         26.55470       57.58603      112.24178
C         27.67559       55.76752      113.59350
C         25.26139       57.86364      113.00165
H         29.18582       59.17998      111.07634
H         29.16186       57.04869      111.63139
H         27.62175       57.88949      114.11655
H         26.42629       56.76360      111.50199
H         26.74834       58.51209      111.66531
H         26.70166       55.49827      114.04746
H         27.82954       55.13213      112.69256
H         28.45838       55.49539      114.32779
H         25.41206       58.76275      113.63410
H         24.44632       58.09063      112.28454
H         24.96313       57.01531      113.64643
N         30.79839       55.96346      113.09423
C         32.06190       55.55726      113.72544
C         33.29667       56.20398      113.10035
O         34.38024       55.86805      113.55272
C         32.16602       54.00806      113.68139
C         32.27940       53.43385      112.26363
O         31.03428       53.44378      114.29372
H         30.86103       55.82228      112.06081
H         32.04502       55.83414      114.80396
H         33.08938       53.69043      114.22425
H         31.25695       53.30199      115.24844
H         32.37266       52.32854      112.31936
H         31.37796       53.66648      111.66055
H         33.17763       53.83154      111.74695
N         33.23298       57.10394      112.06471
C         34.41904       57.68513      111.43170
C         35.15359       58.51992      112.46978
O         34.71809       59.62475      112.76473
C         34.00112       58.51936      110.19100
C         35.19648       59.01069      109.37844
O         33.19510       57.72853      109.35086
H         32.31651       57.37685      111.68928
H         35.05538       56.84091      111.08251
H         33.42410       59.40492      110.54918
H         32.40256       58.27249      109.09799
H         35.77040       58.14365      108.98669
H         34.83017       59.60813      108.51553
H         35.86340       59.64787      109.99363
N         36.13519       57.93672      113.22007
C         36.64223       58.45468      114.49176
C         35.50416       58.61673      115.50046
O         34.34610       58.56264      115.11530
C         37.45184       59.75451      114.33485
C         38.62713       59.58224      113.36037
C         39.46447       60.86744      113.28289
C         40.58895       60.80027      112.23453
N         41.58068       59.76500      112.53140
H         36.46207       56.99616      112.95061
H         37.32478       57.67622      114.90297
H         37.85308       60.04069      115.33240
H         36.79421       60.57558      113.97843
H         38.23002       59.34169      112.35017
H         39.26478       58.74167      113.70797
H         39.89990       61.09052      114.28192
H         38.79660       61.70988      112.99945
H         41.09917       61.78896      112.21617
H         40.15266       60.62292      111.22666
H         41.98638       59.91419      113.48357
H         41.15465       58.81361      112.46645
H         42.34957       59.82337      111.82497
N         35.75580       58.74983      116.83332
C         34.68293       58.88242      117.82358
C         33.60859       57.81363      117.64223
O         32.46106       58.20130      117.47394
C         35.20617       58.86736      119.27670
C         36.10548       60.06751      119.59947
C         36.60083       59.98474      121.01467
O         36.28551       60.94832      121.90043
O         37.29853       59.04637      121.36690
H         36.73608       58.71089      117.14869
H         34.18533       59.86740      117.66994
H         35.75067       57.92562      119.48416
H         34.33229       58.91010      119.96625
H         35.52165       61.00435      119.46319
H         36.98494       60.10009      118.92515
N         33.83891       56.46979      117.62093
C         35.11757       55.80486      117.74012
H         35.96852       56.49301      117.85437
H         35.08950       55.12374      118.61555
H         35.29443       55.20269      116.82430
H         33.02944       55.85560      117.47779
Ca        29.78453       59.11319      116.26232
O         32.08004       60.43972      115.41728
H         32.96142       60.78438      115.70305
H         32.23983       60.02433      114.53271
O         31.27583       60.83543      118.69870
H         31.92852       61.50042      118.36515
H         30.71916       61.33450      119.34811
O         29.48065       58.69341      119.55550
H         28.56882       58.66520      119.93838
H         29.69036       57.75024      119.34728

Ca 1.0



