%chk=apoCaM-CA-Ng.loop1.water4.frame372.chk
%nprocshared=20
%mem=10GB
%nosave
#b3lyp/svp scf=(tight,noincore,xqc) Test 
#IOP(5/87=12) Density=Current Pop=(MK,readradii) iop(6/33=2) iop(6/42=6)

apoCaM-CA-Ng.loop1.water4.frame372 

   0  1 
C         19.50956       77.58974       13.84332
C         20.20443       76.68244       12.87458
O         20.94921       77.17087       12.03580
H         18.41058       77.46200       13.75192
H         19.82623       77.34215       14.87719
H         19.76115       78.65251       13.63534
N         19.98164       75.33680       12.91646
C         20.60337       74.40152       11.98761
C         19.52137       73.82571       11.08389
O         19.41285       72.61070       10.97565
C         21.33104       73.27195       12.76462
C         22.35038       73.76175       13.75529
O         23.51687       73.41683       13.65610
O         21.97121       74.52520       14.79857
H         19.31593       74.96534       13.61193
H         21.34027       74.92876       11.35086
H         21.82558       72.59412       12.03276
H         20.58141       72.67773       13.33294
N         18.62874       74.65222       10.45591
C         17.47233       74.14331        9.72366
C         17.34160       74.76492        8.33463
O         17.21035       75.98073        8.28754
C         16.19067       74.44923       10.54193
C         14.93694       73.87890        9.85559
C         13.64121       74.19086       10.60586
C         12.44127       73.65192        9.80909
N         11.17945       73.93426       10.48912
H         18.70728       75.67151       10.59621
H         17.53967       73.06153        9.66086
H         16.07814       75.54900       10.66819
H         16.28439       73.99586       11.55423
H         15.04266       72.77810        9.77620
H         14.84895       74.31264        8.83673
H         13.53524       75.29166       10.72092
H         13.67025       73.72329       11.61418
H         12.54554       72.55262        9.67139
H         12.42453       74.12767        8.80200
H         10.39108       73.57376        9.90389
H         11.15901       73.45566       11.41843
H         11.06164       74.96562       10.61599
N         17.25550       74.06080        7.15395
C         17.49740       72.63264        6.90736
C         16.67576       71.67783        7.76955
O         17.23289       71.03853        8.65120
C         19.01306       72.35841        6.89117
C         19.61976       73.10129        5.72305
O         19.24287       72.85356        4.58843
O         20.52679       74.07345        5.89545
H         17.04694       74.61754        6.30980
H         17.19332       72.40061        5.86588
H         19.19837       71.27460        6.72368
H         19.47833       72.65961        7.85319
N         15.35151       71.44479        7.54111
C         14.66288       71.93681        6.35914
C         13.20601       71.51400        6.28536
O         12.67179       71.01976        7.26813
H         14.86150       70.80575        8.18588
H         15.18545       71.47524        5.49482
H         14.71824       73.04442        6.29331
N         12.47402       71.63155        5.13811
C         13.00150       72.10393        3.85853
C         13.14010       70.96043        2.85993
O         13.73623       71.17711        1.81284
C         12.15050       73.26827        3.31957
C         10.70200       72.90385        3.13144
O          9.75192       73.55345        3.83109
O         10.37829       72.02587        2.34777
H         11.49668       71.30006        5.16183
H         14.02749       72.50054        3.98159
H         12.56678       73.62464        2.35231
H         12.21450       74.10681        4.04665
N         12.65753       69.70767        3.11835
C         12.89488       68.57256        2.24767
C         14.29930       68.01506        2.38364
O         14.57929       67.03086        1.71540
H         12.09831       69.52528        3.96197
H         12.65740       68.83872        1.19394
H         12.21270       67.74751        2.54720
N         15.22693       68.55846        3.23337
C         16.56027       67.99456        3.42083
C         16.84251       67.71067        4.88997
O         16.10025       68.14386        5.75944
C         17.63531       68.94174        2.82990
C         17.65250       70.32412        3.49304
O         17.41233       69.11239        1.45469
H         14.99375       69.39808        3.77735
H         16.63815       67.02470        2.88306
H         18.64732       68.50002        2.98348
H         17.74375       68.29081        1.00626
H         18.45511       70.93752        3.03464
H         16.69148       70.85823        3.34099
H         17.85258       70.23911        4.58201
N         17.93157       66.96143        5.21777
C         18.37207       66.67885        6.58148
C         19.82672       67.12920        6.79421
O         20.37595       66.85169        7.85210
C         18.13671       65.16454        6.90944
C         18.74638       64.13747        5.91565
C         16.62139       64.89398        6.99900
C         20.26649       64.17040        5.80185
H         18.48197       66.55258        4.44753
H         17.77444       67.25289        7.32408
H         18.54760       64.96051        7.92342
H         18.30326       64.26238        4.90421
H         18.47668       63.11706        6.26974
H         16.42927       63.84477        7.31172
H         16.15006       65.55823        7.75463
H         16.12561       65.06241        6.01904
H         20.61434       65.11915        5.35252
H         20.73087       64.02457        6.79974
H         20.59694       63.34732        5.13307
N         20.51246       67.82179        5.83358
C         21.93571       68.15522        5.90381
C         22.32163       69.01046        7.10824
O         21.85237       70.13076        7.24638
C         22.41694       68.82120        4.58198
C         21.71269       70.14637        4.22705
O         22.22587       67.91141        3.52828
H         20.01927       68.07405        4.97008
H         22.49025       67.19338        5.97954
H         23.50831       69.02526        4.70103
H         22.93654       68.08792        2.85763
H         22.12342       70.53797        3.27345
H         20.62177       70.00854        4.08913
H         21.87646       70.92644        4.99398
N         23.21578       68.52423        8.01833
C         23.72323       69.30539        9.14684
C         24.73070       70.36433        8.70279
O         25.17366       70.34110        7.56254
C         24.41606       68.37744       10.18941
C         25.68215       67.68062        9.65161
O         23.51682       67.39298       10.62773
H         23.52468       67.54845        7.90958
H         22.85620       69.79167        9.64744
H         24.74393       68.98660       11.06376
H         22.87146       67.84240       11.23314
H         26.43640       68.41829        9.30887
H         26.14520       67.07346       10.45729
H         25.45840       67.00353        8.80361
N         25.17862       71.29284        9.59903
C         26.30699       72.19239        9.35557
C         25.87255       73.61172        9.05287
O         26.75132       74.42697        8.80237
C         27.24489       72.17806       10.59282
C         27.89986       70.80723       10.85571
C         29.02428       70.44298        9.86446
C         30.29963       71.27725       10.10543
N         31.36858       70.89535        9.18370
H         24.72436       71.33622       10.52475
H         26.86920       71.87633        8.45160
H         26.62749       72.44866       11.47775
H         28.03448       72.95191       10.51181
H         27.10835       70.03308       10.83675
H         28.33467       70.79283       11.87855
H         28.67463       70.54168        8.81591
H         29.29341       69.37763       10.03111
H         30.64637       71.10378       11.14964
H         30.10026       72.36192        9.98528
H         31.57368       69.87315        9.26492
H         31.09122       71.12642        8.20243
H         32.23382       71.43160        9.42534
N         24.56272       73.98665        8.98095
C         24.18461       75.32697        8.55147
C         24.68707       76.36452        9.53612
O         24.26108       76.36599       10.68321
C         22.65949       75.41239        8.33692
C         22.17236       76.76945        7.80255
C         22.87847       77.16948        6.53778
O         23.55706       78.33067        6.48283
O         22.86210       76.43766        5.56373
H         23.82129       73.29478        9.16575
H         24.65904       75.49549        7.55949
H         22.12637       75.19206        9.28123
H         22.37947       74.62481        7.60535
H         22.33002       77.55574        8.57102
H         21.08060       76.69610        7.60453
N         25.62654       77.27036        9.14565
C         26.16946       78.26397       10.04421
H         26.93755       78.86891        9.51556
H         25.36275       78.93975       10.39669
H         26.65050       77.76685       10.91331
H         25.98640       77.24589        8.17923
Ca        21.01200       75.18280        3.98334
O         21.13697       78.24208        3.46737
H         20.96753       79.17568        3.18607
H         22.09911       78.22554        3.69952
O         20.46325       73.36284        1.44551
H         20.40030       73.83389        0.57680
H         21.20374       72.71676        1.32467
O         22.50538       76.15230        1.43062
H         22.08923       76.66124        0.69034
H         22.86676       75.33734        1.00006
O         23.25904       73.30816        3.30125
H         23.49658       73.28343        4.26216
H         24.00574       73.79629        2.87195

Ca 1.0



