%chk=apoCaM-CA-Ng.loop1.water4.frame413.chk
%nprocshared=20
%mem=10GB
%nosave
#b3lyp/svp scf=(tight,noincore,xqc) Test 
#IOP(5/87=12) Density=Current Pop=(MK,readradii) iop(6/33=2) iop(6/42=6)

apoCaM-CA-Ng.loop1.water4.frame413 

   0  1 
C        101.65468       94.15965      -15.22840
C        100.51469       95.01265      -14.76172
O         99.37202       94.57894      -14.80525
H        102.38424       94.02503      -14.40185
H        101.29592       93.16377      -15.56128
H        102.16148       94.66404      -16.07838
N        100.76822       96.25945      -14.28573
C         99.72978       97.16340      -13.80839
C         98.89166       97.76372      -14.93805
O         98.08471       98.62122      -14.63247
C        100.37072       98.27661      -12.93441
C        101.32775       99.18289      -13.66214
O        100.93673       99.89945      -14.56714
O        102.61790       99.24265      -13.28202
H        101.75504       96.55409      -14.21581
H         99.05683       96.61172      -13.11366
H        100.91319       97.78677      -12.09658
H         99.57723       98.90187      -12.47901
N         99.01642       97.41574      -16.25363
C         98.34384       98.15844      -17.31715
C         97.30831       97.35623      -18.08131
O         97.61523       96.23137      -18.45049
C         99.39120       98.68022      -18.32000
C        100.27699       99.75793      -17.69282
C        101.06304      100.52306      -18.75960
C        101.80984      101.70630      -18.13207
N        102.45682      102.51839      -19.16065
H         99.65117       96.65783      -16.53644
H         97.83002       99.02394      -16.88989
H         98.85302       99.14056      -19.16560
H        100.00251       97.85416      -18.74568
H        100.96158       99.29821      -16.95162
H         99.61932      100.49345      -17.18018
H        100.34250      100.92890      -19.50403
H        101.77143       99.84369      -19.28177
H        102.56877      101.33340      -17.40931
H        101.08480      102.34666      -17.57971
H        102.93518      103.32850      -18.70485
H        103.16210      101.94857      -19.68067
H        101.73879      102.88702      -19.82705
N         96.10788       97.88481      -18.50893
C         95.54601       99.22334      -18.23875
C         96.52659      100.35858      -18.50754
O         96.88787      101.07460      -17.58373
C         94.89541       99.27144      -16.84222
C         93.71790       98.34801      -16.76367
O         93.14236       98.18825      -15.69896
O         93.28665       97.69806      -17.86396
H         95.53923       97.28506      -19.12699
H         94.69741       99.39770      -18.93096
H         94.48444      100.27513      -16.64121
H         95.64130       99.00511      -16.06433
N         97.00387      100.62374      -19.75152
C         96.51667       99.93711      -20.93463
C         97.14407      100.44696      -22.21830
O         98.12244      101.17709      -22.16600
H         97.68895      101.38856      -19.84170
H         95.42893      100.15309      -20.98528
H         96.68168       98.84181      -20.86362
N         96.60382      100.16650      -23.43956
C         95.40319       99.35941      -23.64216
C         94.20831      100.24350      -23.95658
O         94.37283      101.44068      -24.15714
C         95.65491       98.27030      -24.70760
C         95.96507       98.78298      -26.09606
O         95.96749      100.09941      -26.38452
O         96.21098       97.98288      -26.98381
H         97.03775      100.61922      -24.25739
H         95.13988       98.82416      -22.70845
H         94.76320       97.61171      -24.77825
H         96.51113       97.64886      -24.36510
N         92.95175       99.71825      -23.94310
C         91.74816      100.50389      -24.16661
C         91.61860      101.62835      -23.15975
O         91.51666      102.77748      -23.56338
H         92.83526       98.71353      -23.73701
H         90.86273       99.83856      -24.06845
H         91.75745      100.91226      -25.20066
N         91.64057      101.36100      -21.82444
C         91.55310      102.38065      -20.78029
C         92.86811      102.42402      -20.03276
O         93.36049      101.37569      -19.64455
C         90.39653      102.06486      -19.80829
C         89.04078      102.11546      -20.51855
O         90.39931      103.01398      -18.77068
H         91.75772      100.37932      -21.52735
H         91.36249      103.38987      -21.20906
H         90.55871      101.04356      -19.38819
H         89.98065      102.58376      -17.97993
H         88.86595      103.12910      -20.94042
H         88.99528      101.36904      -21.33844
H         88.22976      101.89160      -19.79358
N         93.47813      103.61725      -19.76827
C         94.78081      103.72009      -19.11659
C         94.63756      104.23190      -17.68517
O         95.30364      105.18390      -17.30215
C         95.76671      104.56471      -19.99178
C         95.26551      106.02003      -20.22739
C         96.01376      103.86229      -21.33836
C         96.33256      106.93950      -20.82235
H         92.98799      104.48559      -20.02521
H         95.22225      102.71032      -19.00007
H         96.73366      104.60010      -19.44120
H         94.96418      106.48602      -19.26999
H         94.37649      106.02256      -20.89307
H         96.79094      104.37989      -21.93501
H         96.37209      102.83654      -21.16159
H         95.08066      103.80565      -21.93875
H         96.65997      106.60159      -21.82472
H         95.91380      107.96268      -20.92876
H         97.21047      106.98932      -20.14325
N         93.80373      103.59377      -16.81319
C         93.64299      104.01347      -15.41774
C         94.66005      103.35874      -14.48042
O         94.72575      103.75260      -13.32485
C         92.19905      103.74574      -14.91988
C         91.84877      102.24702      -14.83609
O         91.29075      104.39772      -15.76910
H         93.26703      102.78911      -17.16437
H         93.80084      105.11470      -15.36841
H         92.12020      104.17754      -13.89440
H         90.43209      104.46563      -15.27499
H         92.54722      101.71555      -14.15766
H         90.82394      102.12612      -14.42778
H         91.87587      101.75460      -15.82856
N         95.44615      102.32593      -14.90068
C         96.41630      101.58052      -14.09597
C         95.78093      100.85467      -12.90183
O         94.65472      101.15309      -12.53206
C         97.61227      102.48660      -13.70017
C         98.29890      103.08053      -14.94281
O         98.55700      101.78611      -12.93493
H         95.35830      102.02976      -15.87479
H         96.81115      100.78092      -14.75706
H         97.24233      103.32689      -13.07677
H         98.92568      101.06568      -13.50662
H         97.58947      103.69476      -15.53607
H         99.14780      103.72597      -14.63514
H         98.69165      102.26857      -15.59293
N         96.44479       99.82125      -12.29545
C         95.93762       99.07250      -11.14869
C         95.35050       97.71195      -11.55332
O         94.75644       97.06364      -10.70325
C         97.08435       98.82016      -10.13168
C         98.01426      100.01384       -9.84663
C         97.32758      101.23186       -9.23013
C         98.35336      102.36345       -9.04815
N         97.73736      103.54800       -8.45606
H         97.35063       99.53334      -12.66923
H         95.12763       99.66412      -10.66887
H         97.75176       98.03805      -10.56100
H         96.66442       98.41879       -9.18387
H         98.50874      100.31825      -10.79100
H         98.81717       99.66747       -9.15853
H         96.89129      100.95099       -8.24736
H         96.51731      101.58701       -9.90140
H         98.78312      102.63498      -10.03940
H         99.18513      102.01764       -8.39376
H         98.46080      104.29797       -8.36606
H         96.96451      103.89482       -9.06919
H         97.36496      103.31951       -7.50616
N         95.49655       97.20380      -12.81519
C         94.94548       95.92055      -13.26351
C         95.43356       94.75080      -12.43185
O         96.62828       94.49058      -12.38621
C         95.32235       95.68845      -14.74799
C         94.94963       94.32881      -15.37956
C         93.51019       93.87989      -15.25945
O         93.06704       93.50849      -14.18859
O         92.73919       93.76614      -16.35470
H         96.02139       97.75644      -13.50436
H         93.83699       95.97545      -13.19914
H         96.42566       95.79429      -14.86234
H         94.86473       96.49019      -15.34464
H         95.58337       93.52819      -14.94167
H         95.22018       94.40067      -16.45654
N         94.52483       93.95259      -11.80379
C         94.89012       92.72563      -11.13522
H         95.58380       92.93172      -10.29665
H         93.97605       92.22852      -10.74282
H         95.36773       92.03482      -11.86415
H         93.52275       94.19390      -11.84143
Ca        92.72748       95.56784      -17.64398
O         89.89936       93.29054      -16.96447
H         90.37041       92.79709      -17.68233
H         90.24426       92.89606      -16.12398
O         90.36305       96.03486      -15.52687
H         90.92022       96.82170      -15.74835
H         90.58505       95.83272      -14.58357
O         90.06193       97.99111      -18.44179
H         90.37545       98.58240      -17.71225
H         90.47275       98.36662      -19.26077
O         89.43066       95.26018      -19.74753
H         88.69837       95.83900      -20.07840
H         89.07135       94.34033      -19.81854

Ca 1.0



