%chk=apoCaM-CA-Ng.loop4.water7.frame848.chk
%nprocshared=20
%mem=10GB
%nosave
#b3lyp/svp scf=(tight,noincore,xqc) Test 
#IOP(5/87=12) Density=Current Pop=(MK,readradii) iop(6/33=2) iop(6/42=6)

apoCaM-CA-Ng.loop4.water7.frame848 

   -3  1 
C         58.59166       87.74022       68.80519
C         58.73929       88.36778       67.44857
O         59.85710       88.65968       67.05034
H         57.52594       87.53420       69.04319
H         59.15204       86.78331       68.84128
H         58.99181       88.43045       69.57746
N         57.63818       88.60746       66.68222
C         57.65292       89.24639       65.37187
C         58.45567       88.42729       64.36895
O         59.33711       88.96222       63.70853
C         58.13071       90.71693       65.50455
C         57.96151       91.55406       64.26128
O         58.35094       92.84281       64.28126
O         57.46675       91.09414       63.24385
H         56.71513       88.32962       67.05045
H         56.59946       89.26781       65.01210
H         59.20093       90.73902       65.79998
H         57.54150       91.20844       66.30833
N         58.19900       87.09742       64.20922
C         58.89611       86.28769       63.20634
C         58.34045       86.63149       61.82383
O         57.25498       87.19561       61.77575
C         58.77478       84.75852       63.52270
C         57.31697       84.23299       63.36877
C         59.35076       84.47397       64.92710
C         57.15113       82.74586       63.69188
H         57.49876       86.66429       64.82755
H         59.97467       86.55414       63.26276
H         59.40567       84.20295       62.79549
H         57.00138       84.37701       62.31305
H         56.61442       84.79554       64.01625
H         59.39761       83.38494       65.12913
H         60.38926       84.85969       65.00233
H         58.73885       84.94797       65.72319
H         57.83740       82.12937       63.07473
H         57.33916       82.55031       64.76799
H         56.10507       82.43745       63.48098
N         58.95184       86.34549       60.63823
C         60.28129       85.78654       60.42835
C         61.13305       86.78918       59.61664
O         62.22463       86.43753       59.19347
C         60.09025       84.46009       59.64869
C         61.32335       83.60497       59.48498
O         61.24425       82.56400       58.85224
O         62.49890       83.93972       60.05133
H         58.42554       86.58304       59.78061
H         60.78531       85.56281       61.39046
H         59.67639       84.69613       58.64289
H         59.34553       83.83316       60.18644
N         60.67629       88.05067       59.32771
C         61.32433       88.97317       58.40421
C         62.68167       89.51140       58.80322
O         63.22960       90.26637       58.01215
H         59.77302       88.37055       59.70107
H         60.66124       89.85471       58.26594
H         61.42131       88.46703       57.41951
N         63.30712       89.17301       59.96417
C         64.65727       89.61799       60.29104
C         65.61447       88.45977       60.12860
O         66.61348       88.62314       59.43971
C         64.72260       90.31512       61.66901
C         64.23282       89.51067       62.84372
O         63.18038       89.95127       63.55866
O         64.80641       88.49312       63.19235
H         62.84266       88.53046       60.61888
H         65.00723       90.39619       59.57407
H         64.10194       91.23505       61.60383
H         65.77083       90.63496       61.86467
N         65.35006       87.23335       60.66103
C         66.23594       86.10567       60.46286
C         67.54431       86.24825       61.20302
O         68.37722       85.37108       61.03191
H         64.47226       87.06803       61.17199
H         66.42291       85.98132       59.37279
H         65.74550       85.17831       60.82966
N         67.79471       87.28087       62.07240
C         69.03877       87.42332       62.82008
C         69.27043       86.25277       63.77516
O         70.36774       86.15054       64.30490
C         70.22247       87.66838       61.84232
C         70.06484       88.98664       61.04778
C         70.23362       90.24129       61.88303
N         70.09114       91.45804       61.30901
O         70.51852       90.17190       63.06994
H         67.08221       88.00121       62.23840
H         68.96972       88.31559       63.47562
H         70.29648       86.82770       61.12416
H         71.18953       87.70923       62.38792
H         69.07284       89.00247       60.54838
H         70.84207       89.01926       60.25498
H         69.85401       91.54577       60.31032
H         70.21706       92.31662       61.86645
N         68.26557       85.37891       64.10377
C         68.44323       84.24958       65.01830
C         67.61231       84.36578       66.29173
O         67.91192       83.62449       67.21953
C         68.11915       82.89973       64.31385
C         66.68688       82.86093       63.74039
C         69.13393       82.58838       63.20960
H         67.33082       85.52390       63.70431
H         69.49986       84.21612       65.36420
H         68.20657       82.08558       65.06761
H         65.93605       83.07020       64.53110
H         66.55513       83.59833       62.92075
H         66.46923       81.85721       63.31969
H         70.15758       82.54432       63.63769
H         68.90788       81.60043       62.75395
H         69.11115       83.35914       62.41498
N         66.53691       85.19929       66.41216
C         65.72404       85.27400       67.62661
C         65.63473       86.71356       68.10570
O         66.04449       87.60840       67.37393
C         64.34257       84.66140       67.31389
C         63.41234       84.58558       68.49729
N         62.20184       85.19069       68.46233
O         63.74547       83.95387       69.48935
H         66.24158       85.76969       65.60665
H         66.19696       84.67953       68.43933
H         64.50063       83.62148       66.95207
H         63.86989       85.23765       66.48910
H         61.89566       85.71488       67.62951
H         61.56173       85.12748       69.26753
N         65.16997       87.01910       69.35424
C         65.13609       88.40093       69.82864
C         64.92210       88.49769       71.33411
O         64.47743       87.53373       71.94503
C         63.98904       89.15713       69.10990
C         64.16344       90.64937       69.14255
C         63.31120       91.47723       69.89110
C         65.18856       91.22545       68.37614
C         63.49438       92.86517       69.87584
C         65.36009       92.60881       68.35066
C         64.51796       93.43452       69.10031
O         64.70066       94.76947       69.06363
H         64.92065       86.24565       69.98754
H         66.13888       88.83017       69.60603
H         63.02223       88.84053       69.56455
H         63.92622       88.88119       68.03611
H         62.51468       91.05208       70.48958
H         65.84342       90.59945       67.78180
H         62.83875       93.49703       70.46135
H         66.14692       93.03725       67.74270
H         64.14151       95.38032       69.56341
N         65.21825       89.65237       71.99964
C         64.93071       89.84995       73.41398
C         64.11166       91.11718       73.57987
O         64.69625       92.18686       73.46037
C         66.22806       89.99949       74.24186
C         67.09784       88.73954       74.25213
C         68.33030       88.96688       75.08424
O         69.13334       89.83253       74.77208
O         68.55386       88.21866       76.18137
H         65.65448       90.43010       71.48005
H         64.38706       88.98252       73.81881
H         65.95176       90.23149       75.29601
H         66.82515       90.85007       73.84198
H         67.40479       88.47183       73.21923
H         66.51337       87.89772       74.68296
N         62.77378       91.15236       73.83999
C         61.83472       90.02921       73.82147
C         62.11073       88.98001       74.87562
O         62.16934       89.29548       76.05595
C         60.39531       90.55801       74.01119
C         59.95193       91.38146       72.79209
C         58.60196       91.99289       72.98732
O         58.45630       93.32303       72.84742
O         57.62735       91.29417       73.21593
H         62.37921       92.09577       73.98152
H         61.87668       89.54411       72.82071
H         60.34492       91.16577       74.94319
H         59.68825       89.70438       74.11416
H         59.91782       90.71595       71.90252
H         60.66794       92.20121       72.57726
N         62.23733       87.67593       74.49589
C         62.44448       86.59941       75.43584
H         63.39951       86.74728       75.97992
H         61.59851       86.55683       76.15401
H         62.48895       85.63160       74.88972
H         62.16007       87.42760       73.49740
Ca        56.39792       94.21680       72.78011
O         54.41087       92.40948       73.96964
H         54.39551       91.94970       74.84583
H         53.73619       91.93321       73.42404
O         56.62582       95.13112       69.89014
H         56.28733       94.59852       69.12737
H         56.63184       96.06439       69.56017
O         56.45395       95.19965       75.52953
H         56.58686       94.62934       76.32746
H         57.34828       95.58249       75.34427
O         53.90049       95.53812       73.13806
H         52.96615       95.52409       72.81288
H         54.00762       96.42248       73.56969
O         54.04666       93.09421       70.82034
H         53.30278       92.44119       70.79946
H         53.95417       93.60388       69.97679
O         56.85672       91.92442       70.29217
H         56.93412       90.99265       70.61798
H         57.79217       92.21834       70.15391
O         57.20046       97.09663       72.40560
H         58.18592       97.03202       72.33425
H         57.03640       97.38585       73.33815

Ca 1.0



