%chk=apoCaM-CA-Ng.loop2.water4.frame1185.chk
%nprocshared=20
%mem=10GB
%nosave
#b3lyp/svp scf=(tight,noincore,xqc) Test 
#IOP(5/87=12) Density=Current Pop=(MK,readradii) iop(6/33=2) iop(6/42=6)

apoCaM-CA-Ng.loop2.water4.frame1185 

   -2  1 
C         27.48160        6.50016        2.51826
C         26.52725        7.46345        3.18036
O         25.42904        7.60693        2.66392
H         28.47779        6.44389        2.99154
H         27.03620        5.48371        2.51577
H         27.64540        6.82102        1.46805
N         26.83019        8.19928        4.29162
C         28.08802        8.13019        5.03199
C         28.28485        9.40933        5.85025
O         27.94496       10.46339        5.33062
C         28.16460        6.79421        5.82215
C         27.00100        6.61334        6.76380
O         26.81903        7.44156        7.80659
O         26.20901        5.70212        6.58238
H         26.11800        8.87286        4.61137
H         28.92003        8.18292        4.29838
H         29.12275        6.69651        6.37013
H         28.13976        5.94784        5.10868
N         28.90504        9.42845        7.07220
C         29.20412       10.65165        7.81843
C         27.96444       11.38356        8.31690
O         28.12729       12.45626        8.88294
C         30.11615       11.58549        6.99886
H         29.23909        8.55123        7.49082
H         29.78680       10.37329        8.72504
H         30.42940       12.45457        7.61608
H         31.03230       11.04135        6.68613
H         29.61417       11.98765        6.09695
N         26.70816       10.85578        8.20778
C         25.51407       11.53256        8.70422
C         24.93372       10.80383        9.90386
O         25.41084        9.73700       10.26435
C         24.48737       11.69910        7.56178
C         24.05017       10.39129        6.95061
O         23.42605        9.46013        7.69524
O         24.24428       10.17701        5.76542
H         26.58169        9.92432        7.79454
H         25.77506       12.54933        9.06914
H         24.94916       12.32891        6.76958
H         23.58789       12.23262        7.93400
N         23.92489       11.37775       10.61663
C         23.34757       10.78019       11.80929
C         22.48355        9.58342       11.49946
O         22.34194        9.21051       10.34272
H         23.58581       12.31048       10.33611
H         22.67993       11.52926       12.28761
H         24.14985       10.52110       12.53304
N         21.81572        8.95879       12.51156
C         20.84988        7.89179       12.26340
C         19.68962        8.44491       11.46533
O         19.44571        9.64443       11.52793
C         20.26317        7.35048       13.58671
C         21.30597        6.78730       14.51495
N         22.01683        5.68978       14.17427
O         21.49559        7.31843       15.59911
H         21.97067        9.28617       13.47770
H         21.35345        7.07421       11.70243
H         19.51391        6.55548       13.37629
H         19.73629        8.18553       14.10254
H         21.84890        5.21429       13.27719
H         22.72331        5.30461       14.81843
N         18.89607        7.63110       10.71742
C         17.71533        8.15905       10.05907
C         16.62391        8.42165       11.08350
O         16.76661        7.97916       12.21586
H         19.12599        6.62996       10.62032
H         17.31295        7.41005        9.34365
H         18.01080        9.06303        9.48798
N         15.45797        9.05936       10.78643
C         15.15895        9.76622        9.54327
C         14.66409       11.17731        9.90733
O         14.50933       11.46160       11.08841
C         14.15101        8.89524        8.74259
C         13.78107        9.43666        7.35749
O         14.73473        7.62903        8.56087
H         14.72560        9.05924       11.51544
H         16.07053        9.87414        8.92352
H         13.22125        8.79163        9.34978
H         13.99556        6.97503        8.45579
H         14.69559        9.61651        6.75113
H         13.14846        8.69576        6.82539
H         13.17372       10.35459        7.42763
N         14.38963       12.11521        8.95655
C         13.81492       13.42886        9.26493
C         12.36214       13.45913        8.79482
O         11.93793       12.49690        8.16980
C         14.71904       14.56683        8.67841
C         15.00194       14.50844        7.15443
C         16.05977       14.58992        9.43028
C         13.77479       14.65730        6.25675
H         14.54814       11.88275        7.96940
H         13.75152       13.57300       10.36461
H         14.25645       15.54709        8.86865
H         15.55157       13.58402        6.88099
H         15.66048       15.36546        6.91773
H         15.88681       14.72297       10.51976
H         16.62549       13.64864        9.26687
H         16.68283       15.44322        9.08534
H         14.10267       14.70965        5.19710
H         13.10181       13.78581        6.34125
H         13.22370       15.59007        6.50162
N         11.49081       14.48059        9.04466
C         11.74080       15.69200        9.81576
C         11.68789       16.86659        8.86190
O         10.72515       16.96926        8.11334
C         10.66922       15.86043       10.91608
C         10.69175       14.78624       11.97459
O          9.81292       14.84964       12.99289
O         11.49781       13.86978       11.93736
H         10.54472       14.39109        8.63841
H         12.71787       15.67346       10.33676
H          9.65741       15.88448       10.45602
H         10.83931       16.83146       11.43138
N         12.69440       17.78715        8.82795
C         12.73745       18.91205        7.89384
C         13.97906       19.76570        8.12898
O         14.23548       20.10324        9.27993
C         11.47924       19.82095        7.96848
C         11.22284       20.46779        9.30747
C         10.38857       19.84400       10.25023
C         11.77948       21.72334        9.60782
C         10.12564       20.46179       11.47654
C         11.51703       22.33599       10.83605
C         10.69047       21.70601       11.76986
H         13.47301       17.67460        9.49652
H         12.75662       18.49740        6.86490
H         10.56418       19.28192        7.65392
H         11.57472       20.62002        7.20028
H          9.93572       18.88510       10.03480
H         12.41578       22.22699        8.89018
H          9.47980       19.97787       12.19764
H         11.95100       23.30152       11.06130
H         10.48400       22.18429       12.71837
N         14.74901       20.25667        7.11028
C         14.50319       20.05857        5.69008
C         15.17510       18.80449        5.15013
O         14.66195       18.25345        4.18472
C         15.12306       21.31998        5.07640
C         16.34175       21.55243        5.94687
C         15.78154       21.25455        7.33625
H         13.42705       20.07993        5.41010
H         15.31108       21.26948        3.98213
H         14.42614       22.16869        5.26849
H         17.09844       20.78859        5.67636
H         16.81909       22.54991        5.84874
H         16.58306       20.91291        8.02640
H         15.28740       22.16167        7.75098
N         16.33650       18.31346        5.67590
C         17.05401       17.19767        5.07357
C         17.62135       17.64953        3.72729
O         18.45595       18.54426        3.74842
C         18.19316       16.73327        6.01301
C         18.92151       15.48493        5.49424
C         19.95171       15.02314        6.48625
O         21.13030       14.97206        6.17291
O         19.57627       14.65057        7.72559
H         16.72992       18.74646        6.52468
H         16.35489       16.35160        4.99800
H         17.74625       16.49204        7.00159
H         18.92655       17.55666        6.16605
H         19.41209       15.71334        4.52279
H         18.19252       14.66108        5.33799
N         17.25741       17.14415        2.51018
C         16.25725       16.12773        2.24802
H         15.47494       16.55918        1.58817
H         16.73214       15.27500        1.72086
H         15.75025       15.73726        3.14209
H         17.72255       17.53462        1.67535
Ca        25.02964        7.13519        9.14775
O         26.78025        6.59145       11.69485
H         27.24974        7.46055       11.76234
H         26.59818        6.33313       12.63323
O         22.53353        5.79617        8.02139
H         21.92084        6.53350        8.26950
H         22.23253        5.02774        8.56840
O         25.71321        4.13243        9.51809
H         25.09418        3.36169        9.46558
H         26.26898        4.06012        8.70239
O         23.63461        5.62836       11.30318
H         23.10692        4.80230       11.16374
H         24.09241        5.48972       12.16986

Ca 1.0



