%chk=apoCaM-CA-Ng.loop2.water6.frame507.chk
%nprocshared=20
%mem=10GB
%nosave
#b3lyp/svp scf=(tight,noincore,xqc) Test 
#IOP(5/87=12) Density=Current Pop=(MK,readradii) iop(6/33=2) iop(6/42=6)

apoCaM-CA-Ng.loop2.water6.frame507 

   -2  1 
C         69.46491       75.29129       40.15601
C         68.62874       76.53751       40.10584
O         69.11781       77.54507       39.61528
H         70.39107       75.49564       40.73399
H         68.92299       74.45477       40.64403
H         69.74524       74.98199       39.12760
N         67.35516       76.54534       40.59832
C         66.50721       77.73718       40.60101
C         65.27193       77.54149       39.74688
O         65.00945       76.43153       39.30722
C         66.11336       78.13510       42.04196
C         65.26297       77.10742       42.75160
O         65.75382       75.88802       43.04379
O         64.12628       77.38997       43.09540
H         66.97584       75.66642       40.97757
H         67.06531       78.58992       40.15786
H         65.54663       79.09054       41.99789
H         67.02904       78.32053       42.64175
N         64.46817       78.60858       39.46123
C         63.26786       78.50207       38.64165
C         63.64028       78.00292       37.25464
O         64.40900       78.68263       36.58913
C         62.57031       79.86243       38.52746
H         64.73085       79.53302       39.83590
H         62.56719       77.82496       39.16131
H         62.29375       80.23139       39.53765
H         63.24071       80.60941       38.04927
H         61.64539       79.76994       37.91906
N         63.20712       76.81569       36.74005
C         62.28898       75.89661       37.40381
C         62.42404       74.50106       36.82754
O         62.28281       74.31708       35.62574
C         60.82627       76.39542       37.34063
C         60.35239       76.71150       35.94782
O         59.41677       76.09757       35.46114
O         60.92604       77.71065       35.24955
H         63.58490       76.53979       35.81939
H         62.56809       75.79389       38.47104
H         60.70674       77.31627       37.94447
H         60.17458       75.61596       37.79678
N         62.66797       73.45164       37.66601
C         62.77632       72.08414       37.20571
C         64.15055       71.78685       36.63030
O         65.01119       72.65066       36.68163
H         62.70338       73.61182       38.68403
H         61.96392       71.89540       36.47367
H         62.61077       71.41640       38.07093
N         64.45466       70.59073       36.04508
C         63.48353       69.51782       35.88172
C         63.93292       68.60373       34.76070
O         65.01022       68.02886       34.85036
C         63.28210       68.74395       37.21043
C         61.88365       68.18011       37.33392
N         61.39683       67.27387       36.45688
O         61.16945       68.56964       38.24708
H         65.39275       70.48643       35.62533
H         62.52463       69.98116       35.57249
H         63.41732       69.43013       38.06809
H         64.05945       67.95996       37.34001
H         61.96828       66.92474       35.67713
H         60.43188       66.92411       36.55969
N         63.15476       68.43423       33.65720
C         63.55505       67.59283       32.54723
C         64.63686       68.20099       31.67314
O         65.04059       67.51300       30.74474
H         62.22533       68.87904       33.61764
H         62.67624       67.43042       31.88545
H         63.86720       66.59911       32.93581
N         65.09792       69.48437       31.82765
C         66.02290       70.10193       30.87260
C         67.25345       70.72003       31.52515
O         67.29783       70.89330       32.73504
C         65.28900       71.19731       30.05248
C         64.12803       70.63637       29.21948
O         64.84211       72.24192       30.88414
H         64.71784       70.07277       32.58325
H         66.39313       69.33357       30.15845
H         66.00582       71.63595       29.32458
H         64.05261       71.92299       31.39368
H         64.49989       69.85976       28.51857
H         63.34714       70.19074       29.87120
H         63.66636       71.45537       28.62750
N         68.30581       71.07081       30.72857
C         69.52455       71.76437       31.14751
C         69.82010       72.87755       30.14322
O         69.79875       72.61949       28.94613
C         70.71484       70.75734       31.24129
C         72.08166       71.49657       31.35792
C         70.49002       69.83408       32.45844
C         73.29357       70.56727       31.45557
H         68.24978       70.79835       29.73390
H         69.41114       72.21459       32.15844
H         70.74535       70.14353       30.31402
H         72.07676       72.18248       32.22933
H         72.23952       72.10754       30.44360
H         69.52117       69.30176       32.38400
H         71.27360       69.05515       32.53287
H         70.49584       70.43060       33.39887
H         73.28587       69.98943       32.40102
H         73.31698       69.87131       30.59031
H         74.22459       71.17168       31.44921
N         70.21836       74.11196       30.56851
C         70.65369       75.16764       29.65882
C         72.16460       75.17744       29.53878
O         72.65370       75.14557       28.42002
C         70.18952       76.56373       30.12448
C         68.70163       76.74628       30.08100
O         68.04262       77.18307       31.16742
O         68.09065       76.57378       29.03908
H         70.34412       74.26302       31.57969
H         70.24363       75.00255       28.63602
H         70.62020       77.31942       29.43138
H         70.57252       76.78158       31.14630
N         72.95980       75.26508       30.64426
C         74.41675       75.40330       30.59879
C         74.93966       75.60694       32.01643
O         75.71490       74.78782       32.49384
C         75.09920       74.21415       29.85597
C         76.61494       74.31066       29.79754
C         77.26040       75.50377       29.41312
C         77.40205       73.18759       30.11401
C         78.65586       75.57391       29.36988
C         78.79808       73.25737       30.04653
C         79.42417       74.45127       29.68181
H         72.49617       75.27542       31.56540
H         74.65953       76.31737       30.02285
H         74.76098       74.20190       28.80370
H         74.79089       73.24924       30.31190
H         76.69614       76.38957       29.15958
H         76.93740       72.25092       30.39553
H         79.14175       76.50026       29.09078
H         79.39608       72.38501       30.27676
H         80.50447       74.50651       29.63760
N         74.56730       76.69504       32.76546
C         75.08539       76.97354       34.09560
C         74.77300       75.91954       35.14035
O         75.31069       76.02383       36.23427
C         74.42341       78.30016       34.48131
C         74.26116       78.96695       33.13228
C         73.76875       77.80271       32.27929
H         76.18824       77.08780       33.98796
H         73.39154       78.10183       34.85540
H         74.97341       78.88502       35.24906
H         73.59834       79.85751       33.12117
H         75.27405       79.26424       32.77423
H         72.69736       77.58494       32.48343
H         73.92683       78.04974       31.20998
N         73.91124       74.88626       34.89739
C         73.69410       73.82365       35.86624
C         74.99623       73.07419       36.04143
O         75.49674       72.99831       37.15524
C         72.58772       72.83401       35.43230
C         71.15010       73.34806       35.61487
C         70.64333       74.38772       34.66266
O         69.50950       74.12051       33.99394
O         71.13256       75.50354       34.61051
H         73.41984       74.83136       33.99566
H         73.38494       74.25437       36.84609
H         72.65109       71.97439       36.13640
H         72.75717       72.43472       34.41187
H         71.03029       73.73852       36.64809
H         70.47396       72.47067       35.51456
N         75.61865       72.51983       34.96584
C         76.88535       71.83526       35.08081
H         77.64926       72.52551       35.49900
H         76.77897       70.95096       35.74321
H         77.22364       71.49867       34.07808
H         75.19228       72.60607       34.03065
Ca        68.08342       75.75445       33.43017
O         66.24189       78.17066       34.09914
H         65.73680       77.44748       34.54769
H         65.73108       78.34835       33.27009
O         66.13575       75.45593       36.34524
H         65.73068       74.88808       35.64584
H         65.49299       75.40941       37.09313
O         66.78426       74.33438       31.17267
H         67.12231       73.55561       31.68056
H         67.17123       74.22855       30.26860
O         68.74581       76.63698       36.29328
H         68.84355       76.00927       37.05198
H         69.66645       76.94664       36.10723
O         67.45872       72.88377       35.27582
H         67.14146       72.90434       34.33818
H         67.39919       71.93324       35.54192
O         64.72776       74.72466       33.26635
H         64.06068       75.39907       33.54952
H         64.40641       73.87398       33.65852

Ca 1.0



