%chk=apoCaM-CA-Ng.loop1.water3.frame771.chk
%nprocshared=20
%mem=10GB
%nosave
#b3lyp/svp scf=(tight,noincore,xqc) Test 
#IOP(5/87=12) Density=Current Pop=(MK,readradii) iop(6/33=2) iop(6/42=6)

apoCaM-CA-Ng.loop1.water3.frame771 

   0  1 
C         68.36757        3.59350       -5.18425
C         69.57334        4.44938       -5.43706
O         69.94529        4.60911       -6.59078
H         67.48930        4.02718       -5.70656
H         68.55329        2.56993       -5.57173
H         68.13703        3.52496       -4.10037
N         70.23693        5.03492       -4.39990
C         71.41230        5.87986       -4.57520
C         72.64983        5.26410       -3.94565
O         72.57224        4.17922       -3.38821
C         71.10345        7.32000       -4.10930
C         70.71776        7.61697       -2.67252
O         70.64571        6.72019       -1.66153
O         70.44443        8.77704       -2.40813
H         69.88444        4.88053       -3.44667
H         71.65864        5.96600       -5.65641
H         70.25923        7.67600       -4.74044
H         71.97424        7.96512       -4.35087
N         73.85542        5.88904       -4.06126
C         75.10055        5.35552       -3.52697
C         75.63772        6.31919       -2.49365
O         75.87652        7.47388       -2.82083
C         76.09660        5.12136       -4.68225
C         77.46912        4.62680       -4.18262
C         78.44690        4.28424       -5.31901
C         78.04937        3.00706       -6.07921
N         79.03713        2.67993       -7.10712
H         73.90240        6.78975       -4.56136
H         74.93413        4.36894       -3.04103
H         76.24530        6.06091       -5.25951
H         75.63820        4.36904       -5.35652
H         77.35077        3.73733       -3.52631
H         77.92657        5.44112       -3.57952
H         79.44527        4.10563       -4.86321
H         78.53559        5.14620       -6.01626
H         77.05754        3.12777       -6.56215
H         77.98691        2.16238       -5.35670
H         79.07647        3.44255       -7.82157
H         79.98105        2.55039       -6.67531
H         78.75811        1.78857       -7.57758
N         75.87496        5.89299       -1.21909
C         76.39784        6.77289       -0.17591
C         76.86262        5.99313        1.06035
O         76.46546        4.84914        1.22956
C         75.34934        7.85505        0.19236
C         74.03296        7.25511        0.61022
O         73.02502        7.48874       -0.03682
O         73.95312        6.46900        1.70032
H         75.71344        4.89786       -1.00925
H         77.31310        7.23666       -0.60156
H         75.17512        8.50722       -0.68865
H         75.70733        8.51013        1.01026
N         77.78244        6.49399        1.94227
C         78.38515        7.81288        1.85562
C         79.81062        7.72269        1.38469
O         80.03713        7.18670        0.30792
H         78.11351        5.88197        2.70375
H         78.28903        8.33001        2.83407
H         77.88255        8.45550        1.11543
N         80.81741        8.31760        2.08344
C         82.16447        8.43567        1.53097
C         82.88931        7.10706        1.41604
O         83.83469        7.04389        0.64178
C         83.02251        9.42261        2.34319
C         82.39249       10.78773        2.39897
O         82.18320       11.41305        1.37131
O         82.05639       11.32711        3.58609
H         80.58824        8.79739        2.96741
H         82.05917        8.85401        0.50285
H         84.02528        9.52308        1.87334
H         83.15530        9.03109        3.37534
N         82.54338        6.02068        2.16755
C         83.22921        4.73868        2.06010
C         82.30559        3.60564        1.66550
O         82.80650        2.50771        1.46832
H         81.78730        6.10820        2.86234
H         83.70689        4.49512        3.03211
H         84.03433        4.78272        1.29566
N         80.95802        3.77691        1.53609
C         80.04693        2.72583        1.10835
C         79.11383        2.38125        2.24937
O         78.45566        3.26679        2.77733
C         79.25355        3.20291       -0.12968
C         80.18072        3.49961       -1.30975
O         78.33424        2.21586       -0.52479
H         80.53313        4.69115        1.74247
H         80.59908        1.80509        0.81749
H         78.72050        4.15173        0.10545
H         77.48485        2.39705       -0.04274
H         80.73946        2.58474       -1.60102
H         79.58241        3.84325       -2.17852
H         80.90561        4.30034       -1.05139
N         78.98903        1.08865        2.66499
C         78.08051        0.69142        3.73445
C         78.71165        0.95916        5.09431
O         77.97223        1.10816        6.05737
C         77.63060       -0.79134        3.55372
C         77.01417       -1.05192        2.14700
C         76.65701       -1.25193        4.65497
C         75.76363       -0.22815        1.81602
H         79.52699        0.35774        2.17513
H         77.16851        1.32419        3.66598
H         78.53421       -1.43678        3.63124
H         76.75550       -2.12989        2.06466
H         77.76970       -0.84558        1.36043
H         77.13724       -1.20839        5.65315
H         75.74294       -0.62375        4.67624
H         76.36480       -2.31031        4.48629
H         75.98706        0.85830        1.80865
H         75.40600       -0.50090        0.80092
H         74.94396       -0.43376        2.53330
N         80.06752        1.04967        5.24713
C         80.71006        1.36200        6.52119
C         81.61801        0.23127        6.98202
O         81.78095       -0.75501        6.27719
C         81.47270        2.70967        6.41463
C         82.62306        2.68027        5.40183
O         80.58063        3.73076        6.05001
H         80.67462        0.89607        4.43018
H         79.94233        1.48409        7.31651
H         81.92976        2.96244        7.39867
H         80.05536        3.95686        6.86200
H         83.13992        3.66273        5.40090
H         83.36440        1.89858        5.67044
H         82.25096        2.49106        4.37520
N         82.21899        0.32045        8.20220
C         83.07494       -0.70599        8.78595
C         82.37339       -1.25210       10.01777
O         82.08305       -2.44001       10.06037
C         84.48241       -0.11648        9.07752
C         85.43564       -1.15960        9.66291
O         84.41779        0.97402        9.96161
H         82.02741        1.15889        8.76898
H         83.21621       -1.54807        8.07132
H         84.92972        0.21382        8.10943
H         84.27690        1.79086        9.41513
H         86.43718       -0.70343        9.81736
H         85.06431       -1.52656       10.64350
H         85.54334       -2.01851        8.96771
N         82.01201       -0.41681       11.03085
C         81.16060       -0.82155       12.14652
C         80.25353        0.33502       12.56087
O         80.48829        1.46019       12.13700
C         82.01660       -1.40543       13.28819
C         83.04120       -0.39130       13.82571
C         83.98264       -1.02606       14.85697
C         84.99335        0.00863       15.37430
N         85.92492       -0.59209       16.32818
H         82.25424        0.57765       10.93670
H         80.46545       -1.60975       11.77876
H         82.56526       -2.28552       12.88450
H         81.36326       -1.75918       14.11506
H         82.50199        0.46550       14.28427
H         83.66429       -0.01373       12.98568
H         84.53460       -1.86519       14.37767
H         83.39325       -1.42693       15.70995
H         84.44664        0.84204       15.86899
H         85.57074        0.42720       14.51946
H         86.47632       -1.34942       15.86278
H         86.58534        0.14368       16.66920
H         85.40337       -0.98434       17.14521
N         79.13071        0.12603       13.30880
C         78.17275        1.20799       13.54176
C         77.68373        1.79311       12.21467
O         77.87312        2.98721       12.03124
C         76.96122        0.80305       14.41280
C         77.35235        0.45970       15.85792
C         76.15261        0.20571       16.73724
O         76.33818       -0.07440       18.04058
O         75.01468        0.26428       16.29507
H         78.92803       -0.82365       13.65734
H         78.69401        2.02222       14.09638
H         76.39086       -0.03769       13.97146
H         76.28203        1.68460       14.45810
H         77.91258        1.31549       16.29284
H         78.00386       -0.43848       15.87098
N         77.06968        1.08058       11.22154
C         76.80067       -0.34329       11.21756
H         75.70693       -0.50790       11.12448
H         77.30510       -0.80498       10.34291
H         77.15922       -0.86871       12.11545
H         76.77958        1.59350       10.37421
Ca        71.00145        4.52359       -1.23864
O         70.41176        6.95897        1.55393
H         69.88123        6.79942        2.37446
H         69.87348        7.60543        1.03160
O         73.68948        3.40320        0.14011
H         74.04324        3.46891        1.06240
H         74.35475        2.85003       -0.34115
O         71.44348        3.93205        2.35029
H         70.67060        4.20345        2.90635
H         72.23134        4.29738        2.82600

Ca 1.0



