%chk=apoCaM-CA-Ng.loop2.water3.frame659.chk
%nprocshared=20
%mem=10GB
%nosave
#b3lyp/svp scf=(tight,noincore,xqc) Test 
#IOP(5/87=12) Density=Current Pop=(MK,readradii) iop(6/33=2) iop(6/42=6)

apoCaM-CA-Ng.loop2.water3.frame659 

   -2  1 
C         86.74136       28.54443       90.08031
C         86.72456       27.75563       91.35802
O         86.71292       26.53372       91.31049
H         87.66792       29.15343       90.03086
H         86.70534       27.87195       89.19660
H         85.86046       29.22075       90.04457
N         86.68691       28.40513       92.55364
C         86.63699       27.70875       93.83393
C         87.98430       27.08403       94.14747
O         88.96215       27.81171       94.23196
C         86.24709       28.69488       94.95237
C         86.09041       27.99954       96.27661
O         85.26479       27.10993       96.41066
O         86.85828       28.35839       97.32247
H         86.64270       29.43661       92.54225
H         85.83315       26.93960       93.78692
H         85.27674       29.17208       94.69424
H         87.01450       29.49590       95.03565
N         88.10730       25.74703       94.37727
C         89.39277       25.12558       94.69966
C         90.34479       25.21874       93.50789
O         89.85424       25.34848       92.39489
C         89.15688       23.65144       95.07430
H         87.25579       25.16427       94.34692
H         89.82118       25.65393       95.57915
H         88.69580       23.10492       94.22342
H         90.08915       23.12527       95.35206
H         88.46566       23.59331       95.94300
N         91.70667       25.11617       93.60481
C         92.45933       24.96819       94.84820
C         92.67906       26.28012       95.57533
O         92.36287       27.33293       95.04583
C         93.80668       24.26632       94.58032
C         94.81004       24.92671       93.64700
O         94.64724       26.11294       93.00278
O         95.83741       24.30749       93.42289
H         92.23433       25.10673       92.71816
H         91.90323       24.29272       95.52536
H         93.57069       23.26743       94.14893
H         94.31769       24.08185       95.55013
N         93.21126       26.27117       96.83145
C         93.53636       27.46977       97.59098
C         92.53569       27.69269       98.70423
O         91.54790       26.97227       98.75546
H         93.38149       25.36317       97.29225
H         93.54871       28.36555       96.94335
H         94.55979       27.33590       98.00296
N         92.69224       28.65078       99.66611
C         93.85907       29.52501       99.80825
C         93.94730       30.58874       98.71974
O         93.04865       30.69084       97.89707
C         93.82825       30.22849      101.19136
C         92.77652       31.31653      101.28707
N         93.14295       32.60308      101.50056
O         91.59319       31.04103      101.15974
H         91.96446       28.68576      100.39636
H         94.76543       28.88062       99.79661
H         94.82475       30.68013      101.37955
H         93.66651       29.47545      101.99300
H         94.13528       32.86157      101.60486
H         92.43360       33.34870      101.55419
N         95.00090       31.45706       98.69741
C         95.07775       32.59970       97.80010
C         95.98583       32.37021       96.61294
O         96.15454       33.29658       95.83290
H         95.76548       31.34122       99.38066
H         95.45278       33.46965       98.38437
H         94.07004       32.87910       97.42746
N         96.60436       31.17533       96.39787
C         97.51040       30.93838       95.27878
C         96.78634       31.06107       93.94430
O         95.78284       30.39069       93.74322
C         98.16122       29.53826       95.40942
C         99.18819       29.28601       94.29517
O         98.81426       29.45797       96.65110
H         96.45009       30.40683       97.06716
H         98.33816       31.68030       95.33171
H         97.35595       28.76716       95.35909
H         98.99455       28.49704       96.82270
H         99.99773       30.04469       94.33687
H         99.63412       28.27641       94.41460
H         98.71781       29.33547       93.29483
N         97.31460       31.83627       92.95200
C         96.79853       31.85605       91.58716
C         97.61837       30.87346       90.76878
O         98.83202       31.01448       90.70472
C         96.84735       33.29294       90.98417
C         96.39829       33.26059       89.49603
C         95.97086       34.24517       91.81914
C         96.40827       34.61723       88.79136
H         98.21336       32.31039       93.13026
H         95.73772       31.52221       91.57206
H         97.89552       33.66606       91.02184
H         95.38314       32.82647       89.42345
H         97.08965       32.60642       88.92367
H         96.04985       35.28727       91.44763
H         94.90629       33.92900       91.78612
H         96.30850       34.26170       92.87633
H         95.66482       35.30883       89.23606
H         97.42026       35.07136       88.83827
H         96.13180       34.47390       87.72455
N         97.00072       29.84517       90.11624
C         97.70134       28.81394       89.36492
C         97.34576       28.83800       87.88080
O         97.85596       27.98427       87.16759
C         97.34017       27.42071       89.93083
C         97.57974       27.28945       91.40828
O         98.38876       26.48023       91.83228
O         96.85406       28.01911       92.27582
H         95.97916       29.76570       90.16973
H         98.80198       28.95234       89.45005
H         97.94490       26.65547       89.39531
H         96.26687       27.20280       89.74468
N         96.50734       29.77059       87.32833
C         96.15231       29.76985       85.91038
C         94.63263       29.82865       85.73722
O         94.13492       30.77134       85.13779
C         96.92853       30.91225       85.21677
C         96.71172       30.99258       83.71951
C         96.34726       32.21617       83.13002
C         96.89234       29.86555       82.89334
C         96.16856       32.31015       81.74629
C         96.69554       29.96133       81.51269
C         96.33768       31.18293       80.93904
H         96.12872       30.53203       87.90986
H         96.49277       28.83120       85.43010
H         98.01109       30.71934       85.38247
H         96.68461       31.88353       85.70182
H         96.21634       33.10270       83.73788
H         97.17807       28.90864       83.30789
H         95.90075       33.25857       81.29918
H         96.82528       29.08782       80.88649
H         96.19507       31.25646       79.86866
N         93.82174       28.83656       86.22599
C         92.36650       28.79296       86.10594
C         91.66016       30.07672       86.48733
O         90.72037       30.45540       85.80248
C         91.96995       27.68639       87.08932
C         93.11817       26.72060       86.93533
C         94.31454       27.66580       86.92503
H         92.09853       28.49545       85.06648
H         92.01105       28.07714       88.13165
H         90.96003       27.25764       86.91368
H         93.17396       25.90763       87.68858
H         93.02544       26.25853       85.92580
H         94.61923       27.97310       87.94590
H         95.15414       27.15996       86.40383
N         92.07623       30.80490       87.56299
C         91.43603       32.04069       87.99601
C         91.37685       33.01660       86.83214
O         90.28265       33.40839       86.44776
C         92.15060       32.71198       89.20884
C         91.99918       32.01421       90.58999
C         92.83088       30.78913       90.89844
O         92.60538       30.11733       92.05115
O         93.69765       30.39936       90.14308
H         92.90689       30.47136       88.05181
H         90.38986       31.81572       88.30442
H         91.63180       33.68866       89.34002
H         93.20844       32.94365       88.98281
H         90.92587       31.76335       90.72276
H         92.27020       32.75393       91.37439
N         92.50907       33.42446       86.19756
C         92.46436       34.30868       85.05238
H         93.49196       34.49821       84.67725
H         91.87191       33.84060       84.23597
H         91.99872       35.27666       85.33485
H         93.42630       33.08213       86.52008
Ca        93.52789       28.09350       92.65753
O         93.51848       26.83061       90.12938
H         92.54905       26.65237       90.21261
H         93.57755       27.81355       90.03192
O         90.43417       28.43495       91.92533
H         90.89122       28.42102       92.80366
H         90.74473       27.60967       91.47919
O         92.54248       30.44566       94.86088
H         91.78100       29.97350       95.28230
H         93.34753       29.98317       95.20414

Ca 1.0



