%chk=apoCaM-CA-Ng.loop2.water4.frame533.chk
%nprocshared=20
%mem=10GB
%nosave
#b3lyp/svp scf=(tight,noincore,xqc) Test 
#IOP(5/87=12) Density=Current Pop=(MK,readradii) iop(6/33=2) iop(6/42=6)

apoCaM-CA-Ng.loop2.water4.frame533 

   -2  1 
C         75.69616        7.05045       40.09120
C         76.56690        5.85032       40.32156
O         76.56535        4.94300       39.50182
H         74.97110        7.15150       40.92603
H         76.32471        7.96433       40.04177
H         75.13193        6.95345       39.13890
N         77.34418        5.77937       41.43795
C         78.21092        4.64324       41.73362
C         79.26777        4.49236       40.65469
O         80.05879        5.40491       40.46669
C         78.87967        4.83487       43.11124
C         79.78158        3.68671       43.47095
O         81.09182        3.90523       43.69280
O         79.33326        2.55538       43.56571
H         77.30141        6.56434       42.10734
H         77.58121        3.72669       41.78376
H         78.09294        4.92544       43.89149
H         79.47221        5.77662       43.10798
N         79.34239        3.34999       39.91329
C         80.32891        3.15848       38.85331
C         80.10341        4.15824       37.72971
O         78.95857        4.53900       37.52653
C         80.23427        1.73242       38.29904
H         78.67614        2.58867       40.11722
H         81.33165        3.27709       39.29264
H         79.23029        1.54957       37.85936
H         81.00164        1.55731       37.51802
H         80.40371        1.00064       39.11788
N         81.09141        4.61433       36.90289
C         82.50259        4.23897       36.95257
C         83.21813        4.63526       38.22944
O         82.97032        5.70116       38.77327
C         83.25678        4.71264       35.68759
C         83.09905        6.13277       35.16658
O         83.35215        6.31416       33.98601
O         82.70516        7.21278       35.88334
H         80.79428        5.24933       36.14575
H         82.56782        3.13032       36.89319
H         82.84225        4.07713       34.87417
H         84.33815        4.45314       35.74115
N         84.16946        3.79291       38.73826
C         84.94448        4.05959       39.93915
C         84.12573        3.92479       41.20678
O         82.95217        3.59671       41.12788
H         84.39547        2.92917       38.22070
H         85.39952        5.06963       39.85969
H         85.76097        3.30808       40.00560
N         84.65206        4.16088       42.44343
C         86.02121        4.59164       42.71074
C         86.04044        6.04117       43.18996
O         87.11299        6.53771       43.50576
C         86.66216        3.67012       43.77641
C         86.76450        2.21382       43.38146
N         87.29994        1.32314       44.24903
O         86.37329        1.82902       42.28950
H         84.02112        4.07235       43.25689
H         86.65072        4.55372       41.79759
H         86.06887        3.73727       44.71432
H         87.69378        4.02595       43.99091
H         87.63607        1.62799       45.17468
H         87.37810        0.32616       43.99844
N         84.90049        6.79573       43.24387
C         84.85484        8.17846       43.69240
C         85.54058        9.18238       42.77933
O         85.44668       10.36395       43.07868
H         83.99482        6.38021       42.98660
H         85.27111        8.24978       44.71925
H         83.78591        8.48224       43.74128
N         86.23741        8.82351       41.66227
C         86.85245        9.80068       40.76660
C         85.77365       10.62530       40.07951
O         84.85767       10.05963       39.49714
C         87.80172        9.11117       39.74618
C         89.06231        8.60162       40.45478
O         87.19246        8.02630       39.09817
H         86.33543        7.82892       41.42569
H         87.49715       10.49273       41.35300
H         88.14739        9.85641       38.99355
H         86.38666        8.37338       38.64773
H         89.59480        9.44639       40.94436
H         88.80962        7.84437       41.22640
H         89.75453        8.14335       39.71735
N         85.82863       11.98776       40.11556
C         84.78827       12.84482       39.56162
C         85.14865       13.25097       38.14615
O         86.17386       13.88795       37.94400
C         84.56136       14.08655       40.47639
C         83.48001       15.01216       39.85906
C         84.17849       13.62667       41.89751
C         83.14323       16.24860       40.69253
H         86.64148       12.44089       40.56106
H         83.82636       12.28445       39.53273
H         85.51046       14.66345       40.54995
H         82.56090       14.42927       39.69189
H         83.82796       15.37535       38.86878
H         84.08437       14.48944       42.58648
H         83.22333       13.06258       41.88557
H         84.96949       12.97828       42.32704
H         82.69246       15.96865       41.66622
H         84.05409       16.85979       40.86216
H         82.39457       16.86252       40.14808
N         84.31141       12.92846       37.11779
C         84.52416       13.32160       35.73172
C         83.39170       14.19744       35.19846
O         83.47233       14.57469       34.03892
C         84.76853       12.08596       34.83676
C         83.64366       11.08956       34.81710
O         83.32040       10.41004       35.93161
O         83.05837       10.84626       33.77428
H         83.46272       12.38803       37.33341
H         85.44612       13.93824       35.64466
H         85.68660       11.56387       35.18164
H         84.96181       12.44068       33.79958
N         82.35784       14.63744       35.98846
C         81.38715       15.62180       35.51975
C         79.95833       15.17082       35.84007
O         79.25764       15.89502       36.52685
C         81.76821       16.96139       36.20629
C         81.15944       18.21145       35.61689
C         81.44733       18.57379       34.28818
C         80.36905       19.06822       36.40324
C         80.95923       19.77222       33.75908
C         79.88165       20.26680       35.86830
C         80.17955       20.61979       34.54910
H         82.31988       14.37443       36.98270
H         81.47493       15.75928       34.42246
H         82.86649       17.10222       36.10067
H         81.56069       16.88040       37.29701
H         82.06983       17.94144       33.66791
H         80.14468       18.82061       37.43315
H         81.19749       20.05028       32.74019
H         79.28352       20.92990       36.48004
H         79.81305       21.55324       34.14076
N         79.44929       13.97231       35.39434
C         78.09924       13.50010       35.70535
C         77.78110       13.40981       37.18787
O         76.61315       13.24291       37.52340
C         78.07447       12.07919       35.12964
C         79.01257       12.19395       33.95240
C         80.14192       13.05031       34.52611
H         77.39178       14.18901       35.19314
H         78.57044       11.39111       35.85131
H         77.06069       11.67791       34.91462
H         79.34167       11.22988       33.50999
H         78.48128       12.78514       33.17285
H         80.85431       12.45633       35.13921
H         80.66546       13.54847       33.68230
N         78.76269       13.44540       38.13248
C         78.49601       13.39370       39.55824
C         77.78868       14.67952       39.94705
O         76.67784       14.61816       40.45190
C         79.79636       13.23898       40.38888
C         80.42465       11.81793       40.44865
C         81.04104       11.16919       39.22841
O         81.50513        9.90441       39.35843
O         81.11404       11.73285       38.15310
H         79.73837       13.53662       37.82826
H         77.84464       12.52290       39.80035
H         79.51683       13.44744       41.44622
H         80.52767       14.00957       40.09945
H         79.63639       11.12825       40.81678
H         81.22758       11.84791       41.21524
N         78.38393       15.88611       39.71508
C         77.76990       17.15938       40.03295
H         76.76810       17.04440       40.49676
H         78.42299       17.71610       40.73688
H         77.65927       17.75421       39.10157
H         79.31726       15.91170       39.27935
Ca        82.14026        8.41894       37.73723
O         79.44598        7.43258       38.23622
H         80.24977        6.94693       38.54661
H         79.45971        7.31409       37.25376
O         85.33552        7.02436       36.87990
H         85.96481        7.61050       36.38943
H         85.88788        6.26983       37.20397
O         82.55775        8.19708       41.29557
H         81.87270        8.80485       41.67303
H         82.08350        7.33799       41.16782
O         80.28954        9.42275       35.65108
H         80.85720        9.49417       34.84442
H         80.59814       10.16134       36.23178

Ca 1.0



