%chk=apoCaM-CA-Ng.loop1.water3.frame269.chk
%nprocshared=20
%mem=10GB
%nosave
#b3lyp/svp scf=(tight,noincore,xqc) Test 
#IOP(5/87=12) Density=Current Pop=(MK,readradii) iop(6/33=2) iop(6/42=6)

apoCaM-CA-Ng.loop1.water3.frame269 

   0  1 
C         11.48440       24.83474       16.52588
C         11.80742       26.18004       17.10182
O         12.87798       26.32410       17.67550
H         10.50153       24.83814       16.01107
H         12.26904       24.55184       15.79250
H         11.46082       24.07984       17.33960
N         10.92584       27.21706       16.99485
C         11.20412       28.54615       17.52449
C         10.20771       28.86168       18.62794
O          9.57778       29.90450       18.59149
C         11.12903       29.59159       16.38145
C         12.03715       29.27803       15.22266
O         13.00444       30.14280       14.86890
O         11.87382       28.26145       14.56620
H         10.02036       27.06119       16.52495
H         12.21778       28.58018       17.97341
H         11.38965       30.59175       16.78934
H         10.08861       29.63971       15.98811
N          9.95061       27.95546       19.61232
C          8.89064       28.14765       20.59916
C          9.33771       27.71216       21.98169
O          9.80788       26.58859       22.09659
C          7.65511       27.32420       20.18578
C          6.97856       27.94128       18.94602
C          5.75391       27.16325       18.45492
C          6.13815       25.80057       17.85901
N          4.97505       25.14317       17.26739
H         10.42540       27.04037       19.57492
H          8.57106       29.19500       20.61865
H          6.90539       27.34227       21.00827
H          7.96205       26.27137       20.01540
H          7.69267       28.02684       18.10163
H          6.64427       28.96785       19.21829
H          5.28060       27.76918       17.65164
H          5.01510       27.04159       19.27761
H          6.56966       25.14284       18.64271
H          6.90483       25.95287       17.06620
H          4.24597       24.97432       17.99741
H          4.58005       25.73701       16.50185
H          5.27298       24.22711       16.86102
N          9.16303       28.46146       23.11667
C          8.58507       29.80569       23.23014
C          7.18163       29.88342       22.63701
O          6.97335       30.60509       21.67203
C          9.55160       30.89080       22.70551
C         10.83559       30.89849       23.48460
O         11.05016       29.99114       24.45734
O         11.72204       31.68228       23.18589
H          9.44073       28.01583       24.00605
H          8.47957       30.03988       24.30792
H          9.08415       31.88899       22.82186
H          9.79030       30.73837       21.63420
N          6.13509       29.19873       23.17483
C          6.24955       28.47559       24.42970
C          4.94215       27.87747       24.90949
O          3.97754       27.84609       24.15855
H          5.21874       29.28233       22.70957
H          6.56231       29.22077       25.18878
H          7.00876       27.66914       24.36091
N          4.79376       27.41891       26.18704
C          5.83141       27.52739       27.21238
C          5.65769       28.81366       28.00300
O          4.66696       29.50952       27.82098
C          5.87893       26.25872       28.09480
C          4.63772       25.97877       28.91001
O          4.59587       24.87445       29.67880
O          3.67558       26.73038       28.89552
H          3.85251       27.10670       26.46736
H          6.82754       27.59814       26.72954
H          6.73401       26.33528       28.79988
H          6.06385       25.38536       27.43285
N          6.62894       29.22350       28.86738
C          6.55527       30.46835       29.61622
C          6.62221       31.73129       28.76518
O          6.54998       32.80117       29.35026
H          7.45484       28.62347       29.01291
H          7.41331       30.51041       30.32234
H          5.62027       30.47224       30.21754
N          6.77034       31.70584       27.40456
C          6.85030       32.90816       26.57793
C          5.67792       32.94039       25.61472
O          5.47383       31.98978       24.87380
C          8.17195       32.94124       25.78759
C          9.39207       32.94226       26.70913
O          8.20021       34.09760       24.98927
H          6.84284       30.80615       26.91547
H          6.82500       33.82550       27.20590
H          8.20537       32.03802       25.14756
H          8.76005       33.89016       24.19712
H         10.31932       32.95210       26.09746
H          9.38328       33.84197       27.36044
H          9.40253       32.03240       27.34421
N          4.87530       34.03983       25.56910
C          3.72251       34.16400       24.68334
C          4.14630       34.05298       23.22283
O          3.55899       33.23978       22.52019
C          2.95164       35.50182       24.94547
C          2.47348       35.66361       26.42178
C          1.74567       35.65347       23.99357
C          1.50487       34.58497       26.92232
H          5.10659       34.82484       26.19215
H          3.01189       33.33619       24.89823
H          3.64254       36.34841       24.73565
H          1.97297       36.65113       26.52619
H          3.34036       35.68130       27.11146
H          1.22475       36.61620       24.18416
H          2.06850       35.65897       22.93373
H          1.02265       34.82177       24.11933
H          0.57156       34.56842       26.32442
H          1.97671       33.58176       26.90310
H          1.22535       34.80597       27.97420
N          5.13926       34.83099       22.69074
C          5.45682       34.83726       21.25892
C          6.80546       34.17481       20.97351
O          7.52762       33.84345       21.90341
C          5.38708       36.29104       20.71726
C          4.04800       36.96299       21.05366
O          5.55847       36.29627       19.32423
H          5.66960       35.45932       23.31512
H          4.70268       34.22758       20.71362
H          6.20547       36.87529       21.20022
H          5.81203       37.22074       19.06574
H          4.03142       37.99716       20.64916
H          3.20223       36.39252       20.61487
H          3.91015       37.03610       22.15244
N          7.15501       33.86195       19.68941
C          8.33794       33.07205       19.32698
C          9.66434       33.76920       19.61307
O          9.67779       34.94914       19.93304
C          8.26339       32.62488       17.83892
C          8.27877       33.77901       16.82918
O          7.09953       31.85704       17.65565
H          6.47928       34.09419       18.94838
H          8.31582       32.15013       19.94766
H          9.15907       32.00964       17.61506
H          7.30266       31.16696       16.97127
H          8.24996       33.36057       15.79998
H          7.40204       34.44602       16.94948
H          9.20868       34.37548       16.93336
N         10.83268       33.05398       19.52695
C         12.15134       33.62790       19.80491
C         13.17146       32.63171       20.39285
O         14.05856       33.09237       21.09862
C         12.69223       34.41061       18.58242
C         13.07054       33.50281       17.39664
C         13.52370       34.32206       16.17418
C         14.00181       33.40296       15.03835
N         14.38578       34.16993       13.85245
H         10.75109       32.05775       19.30643
H         11.99900       34.36455       20.62579
H         13.59410       34.98708       18.88481
H         11.91756       35.13965       18.25661
H         12.19750       32.88205       17.10294
H         13.89834       32.83155       17.71292
H         14.36003       34.99713       16.45917
H         12.67193       34.94167       15.81619
H         13.18823       32.70003       14.76130
H         14.87739       32.81238       15.39095
H         15.13938       34.85574       14.08742
H         14.74473       33.51242       13.12205
H         13.55418       34.67462       13.46816
N         13.14780       31.28483       20.13893
C         14.06798       30.31467       20.74212
C         15.04297       29.81265       19.70412
O         14.62936       29.29041       18.67820
C         13.26428       29.14213       21.35995
C         14.07895       27.89153       21.77184
C         15.25093       28.10337       22.70604
O         16.36774       27.78004       22.33462
O         15.10074       28.57176       23.96190
H         12.46919       30.90612       19.46640
H         14.65539       30.77862       21.56497
H         12.51873       28.78312       20.61749
H         12.69785       29.52141       22.22271
H         14.46545       27.42255       20.84012
H         13.38192       27.15891       22.23350
N         16.38041       29.90546       19.94327
C         17.37043       29.39017       19.02793
H         18.38632       29.54465       19.45112
H         17.21368       28.30039       18.87968
H         17.29942       29.91903       18.05561
H         16.71421       30.33015       20.82258
Ca        13.16372       29.37867       24.72495
O         14.24708       29.09656       28.52574
H         14.75568       28.24863       28.47707
H         14.59248       29.54886       29.33610
O         15.15988       31.10733       25.71065
H         14.96005       31.65664       24.91086
H         15.89971       31.57998       26.16550
O         11.88230       30.79534       27.69723
H         11.99867       31.72052       28.03033
H         11.55577       30.28875       28.48295

Ca 1.0



