%chk=apoCaM-CA-Ng.loop2.water3.frame661.chk
%nprocshared=20
%mem=10GB
%nosave
#b3lyp/svp scf=(tight,noincore,xqc) Test 
#IOP(5/87=12) Density=Current Pop=(MK,readradii) iop(6/33=2) iop(6/42=6)

apoCaM-CA-Ng.loop2.water3.frame661 

   -2  1 
C        -10.65203       33.15430       93.03529
C        -11.11349       32.03884       93.93029
O        -10.90622       30.88335       93.58858
H         -9.55364       33.08900       92.89023
H        -11.15480       33.07262       92.04842
H        -10.89157       34.14890       93.46785
N        -11.77143       32.31155       95.09170
C        -12.26643       31.27204       95.98651
C        -11.11378       30.50026       96.60400
O        -10.27411       31.10380       97.25851
C        -13.13178       31.89710       97.09943
C        -13.72051       30.84864       98.00425
O        -13.43523       30.85600       99.32010
O        -14.45897       29.98803       97.55155
H        -11.95524       33.29895       95.32952
H        -12.92656       30.59172       95.40239
H        -13.96716       32.46613       96.63658
H        -12.51947       32.60602       97.69906
N        -11.03932       29.14595       96.46819
C         -9.98274       28.34778       97.08625
C         -8.63199       28.67989       96.48107
O         -8.60638       29.23810       95.39199
C        -10.27590       26.85646       96.84542
H        -11.78227       28.66707       95.93531
H         -9.98463       28.55802       98.17695
H         -9.51808       26.18987       97.29396
H        -11.26199       26.58903       97.27815
H        -10.29905       26.64558       95.75336
N         -7.44521       28.32601       97.05394
C         -7.25728       27.74692       98.39086
C         -7.51006       28.76435       99.50891
O         -7.78970       29.92077       99.22205
C         -5.80971       27.20783       98.50728
C         -4.74837       28.26519       98.36370
O         -5.06394       29.54835       98.09818
O         -3.57455       27.95390       98.48498
H         -6.60605       28.49634       96.47751
H         -7.92115       26.87662       98.52985
H         -5.64348       26.43707       97.72419
H         -5.66987       26.71237       99.49015
N         -7.34466       28.40588      100.82060
C         -7.36554       29.36627      101.91643
C         -8.71123       30.01938      102.13889
O         -9.67698       29.62279      101.50235
H         -7.10089       27.43188      101.05182
H         -6.62125       30.15198      101.68108
H         -7.06074       28.86488      102.86141
N         -8.87209       31.07602      102.99378
C         -7.79169       31.70392      103.76284
C         -7.39519       33.02387      103.11776
O         -8.04395       33.43408      102.16480
C         -8.19813       31.91516      105.24555
C         -9.31158       32.93046      105.42953
N         -9.07599       34.10689      106.05890
O        -10.43332       32.69276      105.00912
H         -9.80470       31.51179      103.01925
H         -6.89142       31.05730      103.75734
H         -7.30198       32.27197      105.79714
H         -8.49585       30.95019      105.71010
H         -8.13918       34.34037      106.41856
H         -9.83224       34.79850      106.17401
N         -6.33136       33.74422      103.58557
C         -5.95091       35.03993      103.03458
C         -4.54529       35.09283      102.45439
O         -4.18041       36.15499      101.97052
H         -5.78873       33.37903      104.38313
H         -6.02752       35.79617      103.84553
H         -6.65073       35.35059      102.23086
N         -3.68848       34.02885      102.47192
C         -2.32225       34.10581      101.94425
C         -2.32125       34.29313      100.43002
O         -2.88665       33.47091       99.72389
C         -1.51765       32.84078      102.32348
C         -0.06763       32.92449      101.82341
O         -1.51276       32.71088      103.72236
H         -3.99468       33.15085      102.91435
H         -1.80699       34.96214      102.43613
H         -2.00910       31.95475      101.86468
H         -1.29053       31.76477      103.92455
H          0.44030       33.81261      102.25673
H          0.48803       32.01160      102.12165
H         -0.03223       32.99636      100.71596
N         -1.67851       35.35763       99.86889
C         -1.62682       35.60054       98.42640
C         -0.59329       34.67967       97.77319
O          0.56638       34.72835       98.15888
C         -1.28426       37.09330       98.12268
C         -1.34407       37.33336       96.58927
C         -2.26807       38.03560       98.85463
C         -0.96646       38.74656       96.14809
H         -1.22545       36.03305      100.50187
H         -2.64289       35.42708       98.00330
H         -0.25686       37.31215       98.49057
H         -2.36862       37.11008       96.23181
H         -0.64160       36.64494       96.07545
H         -2.23497       37.89643       99.95326
H         -2.00381       39.09795       98.68849
H         -3.30974       37.85854       98.51275
H         -1.67140       39.50291       96.54635
H          0.06649       38.98635       96.47561
H         -1.01371       38.80403       95.03974
N         -0.94723       33.83258       96.76257
C         -0.02867       32.90159       96.10182
C          0.08939       33.10040       94.59067
O          0.81297       32.32196       93.98317
C         -0.47502       31.47140       96.44533
C         -0.20100       31.23034       97.90470
O          0.94943       31.22842       98.31246
O         -1.19823       31.06362       98.78250
H         -1.93221       33.80678       96.47897
H          1.01107       33.02883       96.47735
H          0.09476       30.70951       95.87045
H         -1.55241       31.35272       96.19356
N         -0.48711       34.14327       93.92173
C         -0.21598       34.42134       92.50837
C         -1.51028       34.56847       91.71921
O         -1.75179       35.63752       91.17399
C          0.72068       35.65701       92.45549
C          1.06013       36.17652       91.07133
C          0.99476       37.56065       90.82079
C          1.45973       35.31604       90.03122
C          1.32402       38.07199       89.56257
C          1.76769       35.83187       88.76688
C          1.70449       37.20807       88.53440
H         -1.05073       34.83050       94.44280
H          0.34857       33.59211       92.03386
H          1.67252       35.35394       92.94368
H          0.28920       36.48255       93.06470
H          0.70718       38.25029       91.60494
H          1.52125       34.24786       90.18528
H          1.28524       39.13944       89.38575
H          2.05923       35.16458       87.96615
H          1.95283       37.60594       87.55866
N         -2.39782       33.53051       91.57674
C         -3.63698       33.61403       90.80919
C         -4.55920       34.74358       91.23156
O         -5.47919       35.06797       90.49470
C         -4.33540       32.28456       91.11974
C         -3.16611       31.34600       91.29403
C         -2.19323       32.19823       92.10665
H         -3.34772       33.72238       89.73914
H         -4.82021       32.35270       92.12333
H         -5.10416       31.97703       90.37958
H         -3.40590       30.36188       91.74982
H         -2.73092       31.17892       90.28250
H         -2.43717       32.20881       93.19116
H         -1.16844       31.80665       91.93518
N         -4.40022       35.34292       92.44336
C         -5.21755       36.43739       92.92233
C         -4.91283       37.64794       92.06575
O         -5.81848       38.19173       91.44901
C         -4.92400       36.76977       94.41105
C         -5.45779       35.77318       95.47524
C         -4.75946       34.45144       95.68263
O         -5.19597       33.63657       96.65840
O         -3.78519       34.11758       95.04006
H         -3.64036       35.02514       93.03936
H         -6.29710       36.17497       92.84789
H         -5.47476       37.71357       94.62009
H         -3.84734       36.97479       94.56847
H         -6.53287       35.57894       95.27566
H         -5.38143       36.28857       96.45679
N         -3.63418       38.10810       91.96625
C         -3.27736       39.23915       91.14142
H         -2.18047       39.41037       91.19334
H         -3.55371       39.03921       90.08434
H         -3.80036       40.14961       91.50098
H         -2.88009       37.62917       92.48168
Ca        -3.33767       30.93376       98.18747
O         -6.97049       31.47815       96.69453
H         -6.41312       31.19115       95.92789
H         -7.80663       31.81079       96.28295
O         -6.32754       33.26675       99.42593
H         -7.31246       33.19925       99.34897
H         -6.17822       33.86874      100.19695
O         -4.28080       30.89912      100.95240
H         -3.48332       30.34245      100.76845
H         -4.33504       30.92812      101.93973

Ca 1.0



