%chk=apoCaM-CA-Ng.loop1.water2.frame1262.chk
%nprocshared=20
%mem=10GB
%nosave
#b3lyp/svp scf=(tight,noincore,xqc) Test 
#IOP(5/87=12) Density=Current Pop=(MK,readradii) iop(6/33=2) iop(6/42=6)

apoCaM-CA-Ng.loop1.water2.frame1262 

   0  1 
C         26.55089       40.29300       27.67925
C         27.84389       40.66709       28.33430
O         28.03839       41.83893       28.62700
H         25.90470       41.18866       27.54909
H         26.75962       39.86217       26.67718
H         26.01491       39.54805       28.30088
N         28.79519       39.71580       28.57094
C         30.10691       40.03416       29.12354
C         31.17111       39.74120       28.08302
O         32.20906       39.17121       28.38924
C         30.34381       39.26755       30.43687
C         29.27040       39.55078       31.44867
O         28.49869       38.54654       31.90706
O         29.09232       40.68605       31.86020
H         28.60064       38.73870       28.30362
H         30.17386       41.11715       29.33354
H         31.32786       39.55237       30.86905
H         30.35631       38.17698       30.21974
N         30.94197       40.10805       26.79479
C         31.89436       39.92401       25.71128
C         33.11461       40.80881       25.90495
O         34.20933       40.26340       25.85873
C         31.21197       40.12423       24.33840
C         30.15427       39.01835       24.13573
C         29.45496       39.08794       22.77844
C         28.46728       37.91624       22.64512
N         27.77752       37.94536       21.35783
H         30.02693       40.52430       26.56836
H         32.24333       38.86584       25.70639
H         31.97690       40.02234       23.53729
H         30.75115       41.13064       24.25232
H         29.38017       39.07759       24.93058
H         30.66027       38.03010       24.21563
H         30.21173       39.02444       21.96664
H         28.90937       40.05257       22.69166
H         27.71491       37.96549       23.46434
H         29.01939       36.95355       22.73947
H         27.12268       37.13147       21.30546
H         27.22761       38.82989       21.26638
H         28.47036       37.87298       20.57794
N         33.07626       42.14468       26.18929
C         31.87897       42.96325       26.38761
C         31.72114       43.29210       27.87042
O         32.58090       42.93198       28.66146
C         31.92396       44.19453       25.46511
C         33.21098       44.95779       25.58391
O         33.58032       45.50460       26.75490
O         33.94930       45.04564       24.61715
H         33.98531       42.60399       26.35775
H         30.96647       42.42151       26.11192
H         31.06334       44.86307       25.66660
H         31.82942       43.83892       24.41461
N         30.58314       43.89829       28.33003
C         30.30471       44.09721       29.75060
C         31.27675       45.02470       30.42462
O         32.12586       45.56785       29.74704
H         29.85236       44.16101       27.65494
H         30.34678       43.11921       30.26976
H         29.28271       44.50434       29.87805
N         31.20473       45.24464       31.76877
C         32.14936       46.05074       32.55864
C         31.63218       46.16362       33.99670
O         31.34353       45.12873       34.58546
C         33.56865       45.42236       32.60864
C         34.28990       45.48709       31.28832
O         34.61029       44.45905       30.71237
O         34.56010       46.69067       30.72857
H         30.41792       44.79250       32.26410
H         32.24631       47.05592       32.11203
H         33.48998       44.37318       32.97161
H         34.19359       45.99007       33.33339
N         31.51108       47.34536       34.67476
C         31.94103       48.64057       34.17351
C         31.11140       49.14454       33.02458
O         30.12772       48.52063       32.65099
H         31.16924       47.31451       35.64801
H         33.00672       48.56484       33.86809
H         31.87227       49.39560       34.98645
N         31.48771       50.29499       32.39598
C         30.77404       50.82947       31.24097
C         30.79822       49.84566       30.08217
O         31.44867       48.81459       30.17264
C         31.36014       52.20617       30.80653
C         32.78700       52.11293       30.24727
O         31.35836       53.09337       31.89440
H         32.31162       50.79660       32.75962
H         29.71565       50.99211       31.54214
H         30.73913       52.63810       29.98855
H         30.41294       53.35041       32.05380
H         33.49353       51.70034       30.99629
H         32.80674       51.47335       29.34023
H         33.14135       53.12369       29.95244
N         30.10554       50.11498       28.94519
C         30.09518       49.24658       27.77959
C         31.54500       49.19231       27.20465
O         32.06824       47.89335       27.09724
C         29.37984       47.87793       28.05835
C         28.01305       48.14022       28.75834
C         29.15723       47.11383       26.73463
C         27.18822       46.88834       29.06645
H         29.55739       50.98693       28.89216
H         29.44695       49.75194       27.02611
H         30.00465       47.25421       28.73330
H         27.39264       48.81579       28.13032
H         28.19805       48.64449       29.73094
H         28.70173       46.12084       26.91544
H         28.49265       47.69178       26.05787
H         30.10218       46.92256       26.20043
H         26.26531       47.18386       29.60909
H         26.86916       46.37167       28.13865
H         27.76123       46.19215       29.70792
N         31.58807       49.93064       25.93245
C         32.71222       49.66611       25.01716
C         33.50416       50.93903       24.72411
O         33.64367       51.31825       23.56965
C         32.13992       48.98525       23.74481
C         31.05712       49.82694       23.04989
O         31.55969       47.75547       24.09614
H         31.38459       50.94815       26.07153
H         33.44080       48.96524       25.47043
H         32.96411       48.81651       23.01070
H         32.25876       47.06079       23.99338
H         31.44350       50.80702       22.70961
H         30.67765       49.28430       22.15928
H         30.20073       50.00719       23.73456
N         34.08748       51.63280       25.74370
C         34.88426       52.83841       25.53670
C         36.31546       52.54361       25.92905
O         36.57377       52.29792       27.09909
C         34.29039       54.00768       26.35235
C         35.08149       55.30674       26.15860
O         32.96043       54.21193       25.95059
H         33.97478       51.28195       26.70511
H         34.86866       53.12796       24.46335
H         34.31702       53.72474       27.43250
H         32.49412       54.65223       26.70880
H         35.07861       55.60675       25.08925
H         34.62097       56.11877       26.75996
H         36.13084       55.18427       26.49903
N         37.29288       52.49410       24.97427
C         38.67978       52.12237       25.24058
C         38.69720       50.76725       25.93601
O         39.27720       50.63301       27.00558
C         39.39257       53.22717       26.06303
C         39.33400       54.62554       25.41711
C         40.14554       54.73900       24.11883
C         40.05478       56.16236       23.54742
N         40.88783       56.30512       22.35396
H         37.03384       52.66143       23.98999
H         39.20404       52.01106       24.26733
H         40.45472       52.94816       26.23831
H         38.89943       53.30602       27.05510
H         39.75552       55.35178       26.14631
H         38.27552       54.90875       25.23206
H         39.76631       54.02705       23.35646
H         41.20836       54.49865       24.34014
H         40.39181       56.89756       24.31186
H         38.99584       56.38844       23.28844
H         40.78611       57.27643       21.97998
H         41.89178       56.14310       22.59920
H         40.58896       55.62461       21.61844
N         37.95261       49.74586       25.42155
C         37.68626       48.51715       26.15931
C         36.41345       47.85363       25.63312
O         35.46137       47.80947       26.39761
C         38.91876       47.59074       26.25103
C         38.66266       46.28011       27.02737
C         38.27810       46.48388       28.47205
O         37.22366       47.02148       28.77000
O         39.08119       46.02471       29.45023
H         37.41994       49.93275       24.55886
H         37.44908       48.82885       27.19695
H         39.75325       48.13215       26.74431
H         39.27680       47.33309       25.23866
H         39.60342       45.68946       26.99982
H         37.87498       45.67994       26.52317
N         36.24395       47.34781       24.37673
C         37.25708       47.25384       23.35153
H         38.05118       46.55045       23.66283
H         36.80422       46.82970       22.42947
H         37.67447       48.24715       23.10243
H         35.30940       46.99476       24.12830
Ca        33.53611       47.54371       28.85528
O         34.97354       50.01826       28.66272
H         35.59164       49.99330       27.89303
H         35.25905       50.81104       29.18045
O         35.77710       49.15218       31.21149
H         36.65270       48.71603       31.05825
H         35.53812       48.92303       32.14387

Ca 1.0



