%chk=apoCaM-CA-Ng.loop3.water6.frame369.chk
%nprocshared=20
%mem=10GB
%nosave
#b3lyp/svp scf=(tight,noincore,xqc) Test 
#IOP(5/87=12) Density=Current Pop=(MK,readradii) iop(6/33=2) iop(6/42=6)

apoCaM-CA-Ng.loop3.water6.frame369 

   0  1 
C         53.87805      124.14114       30.12906
C         55.18419      124.74475       29.70874
O         55.95050      125.15121       30.56636
H         53.03957      124.72079       29.69010
H         53.82385      123.09024       29.77514
H         53.77925      124.14827       31.23618
N         55.50342      124.82893       28.38460
C         56.76281      125.34949       27.84810
C         56.92882      126.86419       28.02935
O         57.89617      127.39265       27.50270
C         57.94690      124.50795       28.41068
C         59.28335      124.73125       27.74590
O         59.81285      123.81990       27.13029
O         59.94418      125.89530       27.88489
H         54.82427      124.45507       27.70357
H         56.73201      125.17849       26.74830
H         57.67948      123.43797       28.26098
H         58.07715      124.67159       29.49974
N         56.03998      127.64139       28.72148
C         56.23550      129.07733       28.93083
C         56.51075      129.40869       30.39644
O         56.75553      130.57005       30.69160
C         55.04004      129.88504       28.37104
C         53.69694      129.61385       29.07675
C         52.59230      130.51929       28.50564
C         51.23693      130.35604       29.21691
N         50.65888      129.02405       29.02987
H         55.20938      127.21233       29.14520
H         57.13511      129.42392       28.37765
H         54.93333      129.66256       27.28630
H         55.27912      130.96698       28.47122
H         53.80105      129.82367       30.16312
H         53.41501      128.55151       28.93809
H         52.46445      130.32530       27.41817
H         52.90755      131.57829       28.63323
H         50.53490      131.10899       28.79400
H         51.35010      130.56976       30.30292
H         49.71231      129.00185       29.47380
H         50.55555      128.81633       28.01005
H         51.24875      128.29397       29.48736
N         56.49995      128.44892       31.36900
C         56.76593      128.72452       32.77933
C         58.21684      129.16873       32.98011
O         59.02455      129.02145       32.07302
C         56.39983      127.45132       33.59245
C         56.44295      127.57790       35.08860
O         57.50173      127.71731       35.67407
O         55.30705      127.45570       35.80067
H         56.26330      127.48622       31.11088
H         56.08250      129.54576       33.09076
H         57.04366      126.59920       33.28286
H         55.35064      127.19187       33.32471
N         58.60080      129.78331       34.13596
C         59.95038      130.27109       34.39261
C         60.98593      129.18813       34.66249
O         62.13195      129.54515       34.89359
H         57.88303      129.98948       34.84285
H         59.92366      130.90865       35.30213
H         60.27506      130.91130       33.54334
N         60.67435      127.86140       34.65986
C         61.63331      126.78472       34.90430
C         61.81698      125.94047       33.65142
O         62.53336      124.95138       33.71365
C         61.08035      125.88047       36.02902
C         60.96015      126.61271       37.36604
N         62.26624      126.78451       37.99504
O         60.10444      125.92145       38.22542
H         59.70914      127.57421       34.45274
H         62.63406      127.17634       35.19209
H         61.71102      124.97546       36.17368
H         60.06996      125.53598       35.71736
H         62.65051      125.84212       38.24431
H         62.13275      127.31216       38.88742
N         61.17924      126.24363       32.48430
C         61.17883      125.37914       31.32237
C         60.53926      124.06102       31.67542
O         61.10401      123.01854       31.37754
H         60.60698      127.09266       32.40967
H         62.20566      125.24576       30.91731
H         60.55408      125.85867       30.53891
N         59.37219      124.05124       32.38038
C         58.68944      122.84249       32.80876
C         58.86526      122.67091       34.30608
O         58.40409      123.50308       35.07402
C         57.20229      122.94937       32.42925
C         56.36877      121.83900       33.01475
C         56.58300      120.50225       32.64721
C         55.37114      122.14417       33.95677
C         55.81061      119.48525       33.21817
C         54.60539      121.12813       34.52818
C         54.82314      119.79340       34.16153
O         54.09296      118.80241       34.71023
H         58.97389      124.95453       32.68226
H         59.12543      121.95275       32.30464
H         57.09880      122.96051       31.32405
H         56.82377      123.92216       32.81600
H         57.34815      120.24852       31.92460
H         55.19126      123.16916       34.25910
H         55.98486      118.45620       32.93236
H         53.84631      121.38117       35.25767
H         53.40589      118.97703       35.36942
N         59.56240      121.59883       34.77568
C         59.81600      121.33347       36.18478
C         61.25351      121.72533       36.48182
O         61.47032      122.47610       37.42355
C         59.51888      119.83867       36.53106
C         58.06857      119.45779       36.13430
C         59.75171      119.57938       38.03331
C         57.72414      117.98340       36.37501
H         59.98303      120.95337       34.09037
H         59.15476      121.96056       36.82663
H         60.21848      119.19629       35.95071
H         57.94101      119.64092       35.04904
H         57.33973      120.09281       36.68361
H         59.62381      118.50951       38.29096
H         60.78601      119.83036       38.31196
H         59.05778      120.18794       38.65212
H         58.43589      117.32522       35.83286
H         57.73736      117.72964       37.45434
H         56.69832      117.77766       36.00367
N         62.28340      121.31732       35.67918
C         63.66154      121.73942       35.91374
C         64.27504      121.02068       37.10403
O         65.32281      121.44745       37.56763
C         64.53121      121.49162       34.67182
O         64.00365      122.16350       33.55905
H         62.07517      120.74556       34.84778
H         63.65568      122.83736       36.10373
H         64.56690      120.40543       34.44229
H         65.58107      121.81996       34.85456
H         64.36270      123.08832       33.58698
N         63.68629      119.91005       37.63713
C         64.16827      119.18456       38.80336
C         64.15122      120.08303       40.02615
O         65.11783      120.14380       40.77333
C         65.52583      118.52190       38.53175
H         62.82355      119.54514       37.21074
H         63.43957      118.36624       39.00147
H         66.31652      119.27563       38.34063
H         65.82987      117.90214       39.40131
H         65.44505      117.85991       37.64279
N         63.04181      120.83284       40.26152
C         62.84157      121.70572       41.40219
C         61.51621      121.34505       42.03465
O         60.51971      121.32388       41.32506
C         62.81683      123.16013       40.92929
H         62.28396      120.80320       39.56788
H         63.67090      121.61223       42.13794
H         63.79134      123.41598       40.46058
H         62.00937      123.32777       40.18507
H         62.65698      123.83704       41.79603
N         61.42533      121.04689       43.36250
C         60.18308      120.67452       44.04051
C         59.67456      119.29492       43.62785
O         58.63640      118.89093       44.13518
C         59.07173      121.74983       43.85516
C         59.50903      123.18931       44.18788
C         59.84548      123.43239       45.63530
O         59.73154      122.46027       46.56051
O         60.20531      124.54532       45.98308
H         62.27777      121.10864       43.93959
H         60.40558      120.59269       45.12420
H         58.18438      121.48677       44.47163
H         58.72427      121.74793       42.80218
H         58.67464      123.87374       43.92077
H         60.38135      123.46379       43.55741
N         60.35176      118.49192       42.75523
C         59.86926      117.17650       42.39307
H         58.87913      117.25744       41.89692
H         60.58097      116.69148       41.69107
H         59.78070      116.54120       43.30032
H         61.24418      118.79254       42.34179
Ca        58.37400      127.39033       38.44996
O         58.26917      126.51070       41.28708
H         58.32647      125.66628       40.77272
H         57.34479      126.83155       41.13370
O         59.73876      130.24844       38.14632
H         59.47696      130.70037       38.98762
H         60.58894      129.79011       38.36409
O         56.80356      129.67577       39.94885
H         57.48801      129.54329       40.65179
H         55.93928      129.62590       40.42913
O         56.48273      130.54974       37.05141
H         55.99601      130.76234       36.21569
H         57.22991      131.19918       37.07594
O         57.09808      124.69847       37.87973
H         56.80241      124.56884       36.94396
H         57.54440      123.84865       38.12234
O         55.02136      127.28136       38.83508
H         54.85667      126.35801       39.15195
H         54.17722      127.54562       38.38990

Ca 1.0



