%chk=apoCaM-CA-Ng.loop1.water3.frame1071.chk
%nprocshared=20
%mem=10GB
%nosave
#b3lyp/svp scf=(tight,noincore,xqc) Test 
#IOP(5/87=12) Density=Current Pop=(MK,readradii) iop(6/33=2) iop(6/42=6)

apoCaM-CA-Ng.loop1.water3.frame1071 

   0  1 
C         18.15260       69.36106        2.68947
C         17.16789       68.25577        2.91287
O         16.45683       68.29211        3.90766
H         19.17897       68.93966        2.63950
H         17.91730       69.88347        1.74061
H         18.11400       70.09319        3.52554
N         17.10348       67.20552        2.04231
C         16.21960       66.06398        2.24984
C         17.05652       64.87801        2.68062
O         16.96556       63.79738        2.11338
C         15.37930       65.77596        0.98798
C         14.48380       66.91438        0.57443
O         14.43367       68.06192        1.27895
O         13.78470       66.79316       -0.41851
H         17.75523       67.18215        1.24300
H         15.52832       66.25729        3.09393
H         14.73522       64.88887        1.17570
H         16.06547       65.54177        0.14475
N         17.91586       65.04320        3.72062
C         18.72458       63.97997        4.29293
C         17.82109       62.95583        4.96979
O         17.92436       61.79522        4.59967
C         19.81859       64.56462        5.22221
C         20.78426       65.44389        4.39685
C         21.82235       66.16175        5.26115
C         22.74235       67.02068        4.37738
N         23.68561       67.79013        5.18590
H         17.99744       65.98575        4.12833
H         19.28467       63.46651        3.47732
H         20.40213       63.73837        5.68390
H         19.37647       65.16464        6.04049
H         20.21550       66.22764        3.85309
H         21.29909       64.80656        3.64371
H         22.42923       65.42189        5.82633
H         21.29029       66.82014        5.98225
H         22.12966       67.72765        3.77329
H         23.30400       66.36257        3.67674
H         24.29961       68.35092        4.55158
H         23.16391       68.44502        5.81299
H         24.28043       67.14815        5.75760
N         16.86101       63.25166        5.90241
C         16.53721       64.57424        6.43723
C         15.20618       65.08644        5.92301
O         14.47009       64.35472        5.27594
C         16.63528       64.59614        7.97574
C         16.18185       63.33647        8.67836
O         14.93319       62.82156        8.61430
O         17.01455       62.72453        9.32840
H         16.27213       62.46611        6.22189
H         17.23918       65.33437        6.07516
H         16.12970       65.49079        8.38309
H         17.71585       64.70531        8.22087
N         14.90494       66.41250        6.07594
C         13.74115       67.04058        5.47046
C         12.46155       66.61413        6.11965
O         12.50423       65.93750        7.13301
H         15.57516       67.02497        6.56581
H         13.71862       66.79472        4.38952
H         13.80905       68.14474        5.57380
N         11.26617       66.97243        5.56552
C          9.98145       66.54548        6.11862
C          8.93493       67.65481        5.99057
O          9.14721       68.58027        5.22170
C          9.54874       65.23367        5.41681
C         10.57104       64.17247        5.71774
O         11.25206       63.69432        4.82566
O         10.82425       63.86446        7.00616
H         11.28100       67.47479        4.66536
H         10.12013       66.34049        7.19522
H          9.47118       65.40745        4.32106
H          8.56936       64.86622        5.76588
N          7.76875       67.66636        6.70820
C          7.41305       66.70538        7.73897
C          8.30779       66.80228        8.95524
O          9.14331       67.69442        9.03819
H          7.09468       68.42738        6.52585
H          7.41907       65.68159        7.33203
H          6.37534       66.90476        8.08564
N          8.15082       65.91165        9.97007
C          8.91028       65.98215       11.21630
C         10.40509       65.74644       10.99985
O         10.78617       65.21639        9.96664
C          8.30114       64.98822       12.23320
C          8.89127       65.10191       13.63325
O          8.45328       63.67124       11.76446
H          7.41726       65.19203        9.86597
H          8.77239       67.01274       11.61296
H          7.21882       65.25041       12.31696
H          7.59122       63.19996       11.90300
H          9.95539       64.79511       13.63097
H          8.79847       66.14297       14.00721
H          8.33415       64.43386       14.32096
N         11.30353       66.18903       11.93688
C         12.76296       66.09777       11.85501
C         13.21388       64.64826       12.00132
O         12.88607       63.82649       11.15884
C         13.30170       66.76706       10.55447
C         12.73925       68.20804       10.38076
C         14.84276       66.80503       10.53516
C         12.56179       68.57364        8.90939
H         10.93275       66.69310       12.75522
H         13.17471       66.67516       12.71355
H         12.96152       66.14221        9.70610
H         13.37655       68.94747       10.91372
H         11.71962       68.30097       10.80342
H         15.22601       67.40501       11.38996
H         15.27014       65.78388       10.61777
H         15.21384       67.26884        9.59773
H         11.80319       67.89042        8.47395
H         12.15558       69.60141        8.81627
H         13.50813       68.49129        8.33878
N         14.01012       64.27608       13.04620
C         14.53219       62.91835       13.20591
C         13.50520       61.91074       13.71953
O         13.87339       60.75072       13.84240
C         15.74794       62.90654       14.18091
C         15.36584       63.19032       15.64427
O         16.70619       63.84692       13.77048
H         14.32767       65.01115       13.69478
H         14.91803       62.58906       12.21793
H         16.20964       61.88993       14.17886
H         17.17465       63.45747       12.98699
H         16.27427       63.15448       16.28158
H         14.89243       64.18591       15.75872
H         14.66405       62.41872       16.02806
N         12.25876       62.27691       14.14805
C         11.40069       61.35984       14.90451
C         11.05450       60.12304       14.08850
O         10.26982       60.21207       13.15591
C         10.14180       62.09458       15.43206
C          9.21703       61.19325       16.25142
O         10.53616       63.16291       16.25925
H         11.96096       63.25542       14.03494
H         11.98502       61.04056       15.79642
H          9.54834       62.46217       14.56389
H         10.54434       63.98907       15.71247
H          8.34205       61.78456       16.59938
H          8.83776       60.34901       15.63975
H          9.75237       60.79494       17.13877
N         11.66769       58.93461       14.37503
C         11.49081       57.69901       13.62103
C         11.74238       57.93883       12.14137
O         10.81059       57.84936       11.35142
C         10.11814       57.03857       13.85459
C          9.78499       56.79890       15.33316
C          8.60263       55.82463       15.43280
C          8.06466       55.70050       16.86053
N          7.00935       54.68795       16.92267
H         12.36011       58.91247       15.13924
H         12.23467       56.95514       13.98792
H         10.16550       56.05448       13.33363
H          9.29405       57.63272       13.40401
H          9.54192       57.77843       15.79993
H         10.64855       56.35044       15.87286
H          8.94686       54.82700       15.07626
H          7.77099       56.16578       14.77917
H          7.65211       56.68629       17.17170
H          8.88136       55.42073       17.56157
H          6.25324       54.90361       16.23242
H          7.41162       53.74451       16.71509
H          6.59754       54.67539       17.88315
N         12.99171       58.24358       11.69275
C         13.26659       58.55839       10.29415
C         13.98883       59.89535       10.18519
O         13.36209       60.81461        9.68125
C         13.96048       57.39525        9.56506
C         13.06598       56.14594        9.53305
C         13.70573       55.04488        8.74061
O         13.94911       55.20247        7.55456
O         13.99971       53.87106        9.33072
H         13.76168       58.23631       12.37277
H         12.30298       58.69421        9.75095
H         14.90902       57.11392       10.05176
H         14.16109       57.71715        8.51866
H         12.08489       56.38817        9.06898
H         12.88704       55.79307       10.57187
N         15.26023       60.15444       10.61721
C         16.20872       59.20380       11.15421
H         17.14352       59.73567       11.43232
H         15.82829       58.70829       12.06343
H         16.49772       58.47055       10.37837
H         15.59880       61.12073       10.53234
Ca        12.88249       63.23924        7.73622
O         10.75307       60.53329        7.92381
H         11.28296       59.89633        7.38221
H         10.17683       59.95739        8.48624
O         13.23004       61.12348        5.58851
H         13.63555       61.88207        5.09960
H         12.26476       61.34021        5.61976
O         10.82443       61.70232       10.76110
H         11.56575       61.48789       11.38041
H         10.62088       62.65046       10.94917

Ca 1.0



