%chk=apoCaM-CA-Ng.loop1.water3.frame1250.chk
%nprocshared=20
%mem=10GB
%nosave
#b3lyp/svp scf=(tight,noincore,xqc) Test 
#IOP(5/87=12) Density=Current Pop=(MK,readradii) iop(6/33=2) iop(6/42=6)

apoCaM-CA-Ng.loop1.water3.frame1250 

   0  1 
C         33.24094       42.82272       25.62583
C         33.52095       44.29449       25.66565
O         33.61184       44.89753       24.60536
H         32.28794       42.63534       25.09057
H         34.06770       42.31251       25.08512
H         33.17556       42.39400       26.64708
N         33.73282       44.93176       26.85528
C         34.13294       46.33299       26.93995
C         35.60481       46.40933       27.31185
O         36.00916       47.22638       28.12716
C         33.18554       47.11845       27.87442
C         33.11245       46.53915       29.26731
O         32.04932       46.12231       29.69869
O         34.20826       46.47792       30.04752
H         33.69938       44.38017       27.72592
H         34.07342       46.80523       25.93513
H         32.16655       47.09827       27.42827
H         33.50588       48.18078       27.93460
N         36.47218       45.55690       26.70116
C         37.91224       45.55750       26.89716
C         38.53618       46.84143       26.35852
O         39.23441       47.47942       27.13366
C         38.54387       44.28150       26.28617
C         38.08778       43.03655       27.07851
C         38.64419       41.73071       26.50295
C         38.24221       40.54179       27.39226
N         38.73108       39.27840       26.84269
H         36.08352       44.85146       26.05981
H         38.13409       45.50215       27.98839
H         39.65103       44.34513       26.36374
H         38.27950       44.17619       25.21405
H         36.97855       42.96480       27.08817
H         38.43844       43.14543       28.12925
H         39.75303       41.78435       26.45007
H         38.24023       41.58553       25.47707
H         37.13382       40.49445       27.48207
H         38.66766       40.68514       28.41137
H         39.77347       39.29843       26.76174
H         38.45652       38.49882       27.48372
H         38.30455       39.10870       25.90307
N         38.33988       47.35317       25.10188
C         37.47217       46.80521       24.06050
C         36.27051       47.72605       23.85487
O         36.21323       48.78596       24.46542
C         38.27330       46.59474       22.75454
C         38.75313       47.90060       22.18416
O         37.83274       48.82556       21.85756
O         39.94251       48.12650       22.03408
H         38.80137       48.25281       24.89117
H         37.07422       45.82579       24.35348
H         37.62523       46.11038       21.99341
H         39.13093       45.91505       22.95466
N         35.24666       47.36430       23.03035
C         34.05096       48.18098       22.87251
C         34.22876       49.34436       21.91884
O         35.25810       49.46630       21.27834
H         35.27029       46.43601       22.58228
H         33.70908       48.52881       23.87102
H         33.24018       47.55589       22.44143
N         33.21711       50.24398       21.77264
C         33.19918       51.32252       20.77912
C         31.84981       51.30465       20.04914
O         30.96888       50.57761       20.48869
C         33.41475       52.66257       21.50999
C         34.77296       52.71347       22.14987
O         34.89154       52.83326       23.48546
O         35.77584       52.65589       21.45752
H         32.41000       50.15823       22.41001
H         34.01142       51.17236       20.03486
H         32.62941       52.78697       22.28694
H         33.34928       53.52267       20.82203
N         31.55044       52.04364       18.93860
C         32.44554       52.88581       18.16531
C         33.52496       52.08481       17.48380
O         33.25777       50.98680       17.01667
H         30.58655       51.97168       18.57472
H         32.84924       53.73443       18.74838
H         31.84902       53.34492       17.34684
N         34.75478       52.63236       17.29792
C         35.83770       51.95007       16.59917
C         36.32872       50.75974       17.41384
O         36.60208       50.91738       18.59231
C         36.97606       52.95077       16.28002
C         38.12111       52.29653       15.49270
O         37.46662       53.52927       17.45894
H         34.90794       53.59760       17.62940
H         35.46885       51.60647       15.60593
H         36.52783       53.74671       15.63724
H         37.87836       54.39644       17.20403
H         38.88753       53.05880       15.23830
H         38.60885       51.49434       16.08461
H         37.73679       51.85851       14.54677
N         36.49069       49.54550       16.80847
C         36.99490       48.31072       17.41700
C         38.39064       48.49391       17.99909
O         38.52909       49.23605       18.96000
C         36.06860       47.72961       18.52982
C         34.55244       47.85541       18.25596
C         36.45927       46.26731       18.83336
C         34.05189       47.16220       16.99269
H         36.26525       49.48657       15.80380
H         37.03067       47.55980       16.59475
H         36.23716       48.31249       19.45241
H         34.29363       48.93125       18.19211
H         33.99891       47.44579       19.13032
H         36.31723       45.62528       17.93776
H         37.52504       46.19391       19.13355
H         35.84472       45.86093       19.66361
H         34.22643       46.06895       17.04131
H         32.95794       47.33415       16.90359
H         34.54563       47.58242       16.09352
N         39.46630       47.81105       17.52061
C         40.77242       47.87671       18.17231
C         41.82799       48.54900       17.32174
O         42.94167       48.66070       17.80984
C         41.22246       46.47627       18.65520
C         41.45586       45.47480       17.52174
O         40.25644       45.95695       19.53583
H         39.34657       47.20731       16.69332
H         40.71928       48.50408       19.09076
H         42.19931       46.59992       19.18573
H         40.69459       45.80917       20.41474
H         42.22661       45.85393       16.81822
H         41.81705       44.51554       17.94933
H         40.51854       45.27304       16.96524
N         41.57387       49.05648       16.07318
C         42.61097       49.77908       15.34026
C         42.92871       51.03455       16.13753
O         42.08882       51.92122       16.20580
C         42.16579       50.10297       13.89285
C         43.30910       50.70791       13.07495
O         41.75452       48.92105       13.25126
H         40.64172       48.94652       15.65334
H         43.49650       49.10729       15.27732
H         41.32712       50.84123       13.91220
H         40.76148       48.89871       13.27496
H         44.15600       49.98976       13.01575
H         42.95868       50.91973       12.04219
H         43.66899       51.65458       13.52808
N         44.06217       51.08681       16.89970
C         44.34009       52.09708       17.92227
C         43.26101       52.09780       19.00602
O         42.21897       51.48215       18.82699
C         44.53770       53.50118       17.31283
C         45.68926       53.51465       16.29478
C         45.83879       54.89655       15.64106
C         46.93332       54.93307       14.55912
N         48.27833       54.76312       15.11240
H         44.73390       50.30780       16.82858
H         45.28912       51.80020       18.42349
H         44.77086       54.22798       18.12208
H         43.59943       53.83162       16.81957
H         45.48129       52.77257       15.49379
H         46.62583       53.22682       16.81691
H         46.04677       55.67173       16.41061
H         44.87428       55.14708       15.14745
H         46.88490       55.92132       14.05069
H         46.73475       54.14850       13.79515
H         48.38635       53.82704       15.56159
H         48.97400       54.83337       14.33478
H         48.47689       55.51923       15.80731
N         43.46791       52.73364       20.19381
C         42.45921       52.77875       21.25382
C         41.93041       51.39255       21.61727
O         40.72677       51.22801       21.52877
C         42.94618       53.51828       22.51947
C         43.25432       54.99938       22.25199
C         43.65486       55.69763       23.51927
O         44.64928       55.34117       24.13131
O         42.92156       56.72773       23.98284
H         44.38104       53.18627       20.34874
H         41.59119       53.36422       20.87424
H         43.83479       53.01868       22.95486
H         42.12877       53.47968       23.27554
H         42.34614       55.49130       21.83922
H         44.07656       55.10623       21.51555
N         42.68645       50.33020       22.01673
C         44.12516       50.29523       22.13116
H         44.61024       51.24553       21.85867
H         44.39739       50.03754       23.17526
H         44.51488       49.50592       21.45441
H         42.19549       49.45020       22.23821
Ca        38.08967       50.94894       21.18974
O         38.05931       51.60550       24.05866
H         37.17035       51.40197       24.44308
H         38.21873       52.55436       24.29083
O         39.25182       52.40664       19.12059
H         40.06703       52.96375       19.10747
H         39.37396       51.76163       18.38072
O         38.66004       53.98526       21.63224
H         37.82495       54.43292       21.91899
H         39.23986       54.00057       22.43441

Ca 1.0



