%chk=apoCaM-CA-Ng.loop4.water3.frame66.chk
%nprocshared=20
%mem=10GB
%nosave
#b3lyp/svp scf=(tight,noincore,xqc) Test 
#IOP(5/87=12) Density=Current Pop=(MK,readradii) iop(6/33=2) iop(6/42=6)

apoCaM-CA-Ng.loop4.water3.frame66 

   -3  1 
C         35.52201       42.05467       63.74325
C         34.44888       41.55725       62.82472
O         33.29432       41.90226       63.02631
H         36.25876       42.64763       63.16160
H         35.09058       42.70495       64.53492
H         36.03366       41.19497       64.22208
N         34.77285       40.76374       61.76198
C         33.81371       40.27077       60.77914
C         33.10766       41.44260       60.11953
O         31.91226       41.60120       60.27982
C         32.93438       39.11501       61.33704
C         32.04782       39.40059       62.51430
O         31.09087       40.14370       62.40288
O         32.26261       38.77079       63.68555
H         35.76690       40.53406       61.61077
H         34.38110       39.76848       59.96328
H         33.63343       38.30543       61.64098
H         32.29944       38.71103       60.51829
N         33.85335       42.31009       59.36754
C         33.41743       43.51946       58.65941
C         32.46941       43.20489       57.49870
O         32.89626       43.34939       56.36091
C         32.92342       44.63352       59.62559
C         32.59942       45.96405       58.88670
C         33.95776       44.88653       60.74182
C         33.76765       46.61146       58.13092
H         34.86067       42.09734       59.29015
H         34.34392       43.91859       58.18961
H         31.99000       44.29124       60.11970
H         32.24763       46.70826       59.63020
H         31.77344       45.78869       58.16562
H         33.59744       45.67689       61.43413
H         34.12034       43.96956       61.34177
H         34.93967       45.19302       60.32513
H         34.13654       45.95833       57.31538
H         33.42003       47.55823       57.66701
H         34.60456       46.86094       58.81479
N         31.19851       42.74256       57.68466
C         30.35937       42.28532       56.58367
C         29.84312       43.45556       55.73704
O         30.20369       43.49563       54.56925
C         29.28729       41.29641       57.10930
C         28.43926       40.71587       56.01268
O         27.70263       41.43213       55.35394
O         28.46912       39.39137       55.77032
H         30.82985       42.64055       58.63342
H         30.99312       41.64369       55.92713
H         28.63550       41.73199       57.88202
H         29.82370       40.46245       57.61455
N         29.02011       44.45098       56.19103
C         28.51176       44.52645       57.55032
C         27.60344       45.71471       57.81856
O         27.33645       46.47715       56.90066
H         28.75688       45.18362       55.51446
H         29.37850       44.57388       58.23162
H         27.89145       43.64540       57.71751
N         27.06747       45.97920       59.05346
C         27.29145       45.24586       60.30476
C         28.77099       45.22651       60.64950
O         29.34638       44.15134       60.73536
C         26.66857       43.82811       60.29662
C         25.21155       43.85974       59.94051
O         24.80402       43.23761       58.97258
O         24.34547       44.56461       60.69287
H         26.46697       46.81591       59.12787
H         26.76564       45.78705       61.12279
H         26.77010       43.38759       61.31152
H         27.20092       43.14538       59.61421
N         29.49970       46.36368       60.81803
C         28.97588       47.71626       60.80841
C         29.40944       48.45339       59.57303
O         29.95806       47.85227       58.65873
H         30.51322       46.26795       60.96611
H         29.35131       48.23359       61.71643
H         27.87082       47.75535       60.85062
N         29.18747       49.78994       59.48458
C         29.51164       50.57794       58.30612
C         30.74528       51.43503       58.53613
O         31.11357       52.16651       57.63037
C         28.29738       51.46074       57.94228
C         27.02785       50.62730       57.68696
C         25.81935       51.47110       57.35635
N         24.62831       50.87240       57.12574
O         25.90147       52.69004       57.30074
H         28.78813       50.27862       60.30335
H         29.74617       49.91945       57.44057
H         28.53011       52.05348       57.03034
H         28.10185       52.16809       58.78014
H         26.78358       50.03679       58.59609
H         27.21489       49.92526       56.84643
H         24.53865       49.84673       57.17309
H         23.79294       51.43397       56.90337
N         31.43653       51.39551       59.71649
C         32.58955       52.24640       59.99299
C         32.24237       53.28817       61.04381
O         33.08059       54.14854       61.29222
C         33.83764       51.40473       60.38340
C         34.23029       50.45378       59.24366
C         33.64934       50.61090       61.68893
H         31.12187       50.77440       60.47116
H         32.85600       52.82924       59.08438
H         34.68702       52.10754       60.53878
H         35.15943       49.90307       59.50390
H         33.42416       49.71446       59.05036
H         34.41971       51.02862       58.31211
H         33.40519       51.29331       62.52987
H         32.84577       49.85163       61.59556
H         34.59057       50.07987       61.94673
N         31.02513       53.31417       61.66678
C         30.61138       54.37288       62.56930
C         30.37917       53.87126       63.98618
O         31.07969       54.35974       64.86149
C         29.42326       55.18591       61.98266
C         28.16519       54.46842       61.52331
N         27.13449       55.19423       61.03312
O         28.06474       53.25423       61.55572
H         30.33817       52.57487       61.47696
H         31.42820       55.12587       62.66168
H         29.80438       55.71997       61.08496
H         29.13740       55.95504       62.73271
H         27.19137       56.22152       60.98169
H         26.27634       54.72723       60.70330
N         29.41069       52.96095       64.31952
C         29.10087       52.65171       65.71473
C         29.15703       51.16619       66.01385
O         29.20518       50.35459       65.10144
C         27.67807       53.15794       66.04598
C         27.42616       54.57405       65.58016
C         26.38067       54.83111       64.67420
C         28.22234       55.64147       66.02546
C         26.13773       56.12858       64.22076
C         27.98252       56.94000       65.56217
C         26.93793       57.18672       64.65812
O         26.69453       58.43197       64.20287
H         28.82390       52.53636       63.59664
H         29.82208       53.16199       66.38713
H         27.50040       53.08812       67.14072
H         26.94396       52.49031       65.54178
H         25.74917       54.02733       64.31565
H         29.03401       55.46808       66.71991
H         25.32781       56.30921       63.52481
H         28.60966       57.75287       65.90462
H         27.22612       59.19303       64.47537
N         29.09670       50.75604       67.31632
C         28.93613       49.37812       67.77409
C         30.07115       48.42581       67.39919
O         29.96570       47.25895       67.75189
C         27.56635       48.81658       67.31492
C         26.37734       49.74391       67.64028
C         26.28506       50.09398       69.09948
O         26.12180       49.12739       70.02197
O         26.35411       51.26074       69.45378
H         29.09358       51.48140       68.04951
H         28.90946       49.40040       68.88696
H         27.39809       47.83461       67.81007
H         27.57211       48.64432       66.21752
H         25.43428       49.24636       67.32975
H         26.47006       50.67646       67.04718
N         31.18486       48.82741       66.71768
C         32.25868       47.91854       66.32286
C         33.58192       48.27070       66.98279
O         34.55018       47.56445       66.73116
C         32.42487       47.96648       64.78788
C         31.22020       47.44570       63.99117
C         31.04152       45.95888       64.13253
O         31.22490       45.23823       63.16739
O         30.67679       45.40837       65.30537
H         31.29548       49.81554       66.45579
H         32.04447       46.87898       66.64036
H         33.30998       47.37026       64.47264
H         32.61100       49.02350       64.49462
H         31.43069       47.66454       62.92137
H         30.28355       47.97385       64.26733
N         33.72094       49.31783       67.84356
C         34.99427       49.62270       68.45861
H         35.74888       49.84575       67.67403
H         34.89459       50.50754       69.12105
H         35.33812       48.75772       69.06555
H         32.91941       49.91850       68.08042
Ca        30.26304       42.66341       62.99632
O         30.17047       42.13438       65.90737
H         29.93289       41.21196       65.63636
H         29.34019       42.65549       65.76615
O         28.09565       40.94314       61.88709
H         27.24610       40.66784       62.31415
H         27.90880       40.91729       60.91525
O         27.99053       44.40789       63.57631
H         27.41391       43.81615       64.12103
H         27.97890       45.27869       64.04604

Ca 1.0



