%chk=apoCaM-CA-Ng.loop2.water5.frame1433.chk
%nprocshared=20
%mem=10GB
%nosave
#b3lyp/svp scf=(tight,noincore,xqc) Test 
#IOP(5/87=12) Density=Current Pop=(MK,readradii) iop(6/33=2) iop(6/42=6)

apoCaM-CA-Ng.loop2.water5.frame1433 

   -2  1 
C         87.50526       86.82929       24.72207
C         86.70085       86.22274       23.60182
O         87.23650       86.09544       22.51066
H         88.52853       87.08977       24.37637
H         87.01601       87.75718       25.08556
H         87.59928       86.10165       25.55612
N         85.41029       85.80336       23.75874
C         84.65739       85.89472       25.00800
C         83.40788       86.76121       24.88780
O         82.78556       86.98674       25.91692
C         84.31510       84.47956       25.53165
C         83.38930       83.67480       24.65692
O         82.93046       84.13891       23.62942
O         83.04910       82.42527       25.02343
H         84.94983       85.38143       22.93968
H         85.27928       86.37231       25.79045
H         83.83971       84.56715       26.53221
H         85.26263       83.91169       25.65137
N         82.97188       87.28316       23.69785
C         81.81139       88.16596       23.60445
C         80.65461       87.57424       22.80450
O         79.61038       88.21183       22.77905
C         82.25429       89.49714       22.98581
H         83.48132       87.07723       22.82695
H         81.40965       88.37870       24.61852
H         82.63445       89.33399       21.95323
H         81.40936       90.21667       22.94429
H         83.06818       89.94788       23.59315
N         80.74895       86.39866       22.11128
C         79.64343       85.85234       21.32010
C         79.34971       84.35702       21.60627
O         79.92484       83.84082       22.76314
C         79.93356       86.03034       19.81229
C         81.35786       85.75197       19.33954
O         82.05440       84.63069       19.64226
O         81.91132       86.59898       18.65680
H         81.64815       85.90143       22.08658
H         78.69711       86.39349       21.54589
H         79.71853       87.09150       19.55391
H         79.21493       85.42161       19.22431
N         77.94301       83.96945       21.41483
C         77.67740       82.52575       21.53780
C         78.44522       81.66507       20.54867
O         79.65786       81.59026       20.65196
H         77.62373       84.28015       20.46906
H         76.58620       82.37383       21.39200
H         77.90614       82.18233       22.57023
N         77.79430       80.93843       19.59312
C         78.47028       79.99060       18.70935
C         78.33744       80.40594       17.25716
O         77.22538       80.58478       16.77954
C         77.89719       78.56879       18.88237
C         78.18082       77.97448       20.24258
N         77.62071       78.47721       21.36739
O         78.91981       77.00432       20.32411
H         76.76995       81.02928       19.50914
H         79.55294       79.92632       18.94656
H         78.39106       77.91993       18.12324
H         76.80388       78.55074       18.68181
H         76.96982       79.27284       21.33218
H         77.82508       78.05160       22.28369
N         79.45675       80.51786       16.48211
C         79.44271       80.83932       15.06267
C         80.26396       82.07854       14.78204
O         80.78057       82.67462       15.71715
H         80.37799       80.33160       16.90734
H         78.40690       81.00568       14.69782
H         79.87654       79.98183       14.50781
N         80.42326       82.57716       13.52353
C         79.87389       81.97576       12.31276
C         80.63176       80.71299       11.92990
O         79.98627       79.73892       11.57666
C         79.91566       82.98497       11.13630
C         79.22038       82.42718        9.88504
O         79.23923       84.16075       11.50822
H         80.94664       83.46249       13.43173
H         78.79268       81.75701       12.46588
H         80.97499       83.21253       10.86672
H         79.92439       84.84627       11.72175
H         79.72183       81.50857        9.51633
H         78.15772       82.18699       10.11020
H         79.24219       83.18168        9.07107
N         82.00124       80.68459       11.92851
C         82.80557       79.57210       11.41685
C         83.59013       78.89880       12.55739
O         84.33359       79.59826       13.22907
C         83.79464       80.10652       10.32720
C         83.01374       80.74467        9.14758
C         84.72651       78.98285        9.82380
C         83.90981       81.38299        8.08136
H         82.50775       81.51216       12.27821
H         82.15108       78.84162       10.91228
H         84.43532       80.89035       10.79097
H         82.36145       81.55213        9.53940
H         82.36725       79.97997        8.66423
H         85.48044       79.36974        9.11034
H         85.30993       78.55153       10.66163
H         84.14548       78.17357        9.33442
H         84.54015       80.62906        7.56836
H         83.27550       81.86117        7.30578
H         84.55947       82.15993        8.53720
N         83.56657       77.54303       12.79756
C         82.73890       76.59965       12.04933
C         83.15247       75.13945       12.16437
O         83.91286       74.76216       13.04804
C         81.26567       76.70708       12.51334
C         81.09692       76.31104       13.96093
O         81.72651       76.99789       14.93443
O         80.38253       75.36724       14.25887
H         84.21091       77.17581       13.51603
H         82.86483       76.82842       10.97063
H         80.62607       76.05891       11.87625
H         80.89872       77.73573       12.41712
N         82.63395       74.25751       11.26264
C         82.78859       72.81227       11.29868
C         83.58850       72.33054       10.09379
O         83.22140       72.69030        8.97688
C         81.38439       72.17392       11.22664
C         81.47044       70.66890       11.25604
C         81.35865       69.92914       10.06539
C         81.69604       69.99619       12.46656
C         81.48301       68.53801       10.08703
C         81.80356       68.60250       12.48603
C         81.70223       67.87455       11.29684
H         82.05719       74.64093       10.49414
H         83.26719       72.49925       12.24844
H         80.91052       72.49970       10.27246
H         80.72288       72.53033       12.04581
H         81.20066       70.43036        9.11803
H         81.78418       70.55187       13.39182
H         81.41375       67.97553        9.16484
H         81.97115       68.08739       13.42247
H         81.79591       66.79679       11.31199
N         84.63869       71.46254       10.19657
C         85.16342       70.91094       11.43965
C         85.92431       71.97350       12.20434
O         85.79326       72.02604       13.42109
C         86.01994       69.73260       10.96025
C         86.55278       70.20495        9.62893
C         85.33629       70.92357        9.04269
H         84.38250       70.46653       12.09162
H         86.76877       69.35949       11.69129
H         85.32459       68.89227       10.72581
H         87.35574       70.93859        9.84241
H         86.98433       69.41813        8.97516
H         85.68025       71.70938        8.33455
H         84.64900       70.21727        8.52641
N         86.66135       72.91316       11.55373
C         87.35161       74.00122       12.22617
C         88.53361       73.43774       13.00186
O         89.40749       72.85493       12.37457
C         87.83889       75.03651       11.18656
C         86.66045       75.68596       10.43271
C         87.15405       76.60958        9.35771
O         86.85326       76.40780        8.19145
O         87.92383       77.66833        9.67208
H         86.69157       72.88629       10.52527
H         86.63461       74.52745       12.88966
H         88.51213       74.53235       10.45720
H         88.41405       75.83742       11.70117
H         86.02781       76.25292       11.14830
H         86.02042       74.91299        9.95681
N         88.66131       73.54184       14.35498
C         87.69533       74.19072       15.21450
H         86.71232       73.68247       15.14273
H         88.03453       74.13174       16.27052
H         87.59107       75.26006       14.93653
H         89.49498       73.12954       14.80251
Ca        81.61956       83.31601       21.40674
O         84.78899       83.97285       20.70015
H         85.05351       84.64881       20.02682
H         84.94915       83.10312       20.25610
O         82.86234       81.92536       18.52460
H         83.62863       81.33234       18.72800
H         83.27315       82.72723       18.11425
O         80.85390       80.47629       23.37566
H         81.51205       79.73767       23.41809
H         80.53381       80.57672       24.30707
O         84.29739       80.85206       21.86162
H         84.57429       80.16005       21.20947
H         84.18475       80.35993       22.71328
O         81.85084       79.58846       20.51686
H         81.89090       79.46161       19.53609
H         81.43321       78.75854       20.85824

Ca 1.0



