%chk=apoCaM-CA-Ng.loop2.water5.frame1476.chk
%nprocshared=20
%mem=10GB
%nosave
#b3lyp/svp scf=(tight,noincore,xqc) Test 
#IOP(5/87=12) Density=Current Pop=(MK,readradii) iop(6/33=2) iop(6/42=6)

apoCaM-CA-Ng.loop2.water5.frame1476 

   -2  1 
C         43.33210       47.90879       80.96089
C         42.99323       49.36000       81.14631
O         43.79497       50.07123       81.73426
H         44.32428       47.68304       81.40857
H         42.57046       47.27066       81.45276
H         43.38204       47.67501       79.87633
N         41.84945       49.91887       80.65975
C         40.80362       49.21027       79.92631
C         39.42041       49.36387       80.56867
O         38.47910       48.79396       80.03286
C         40.81810       49.65535       78.44663
C         40.91221       51.14591       78.25471
O         41.84183       51.61782       77.62031
O         40.01213       51.97178       78.80621
H         41.72871       50.93468       80.78841
H         40.98894       48.11564       79.91467
H         39.92647       49.24796       77.92253
H         41.71389       49.20514       77.96391
N         39.21448       50.04181       81.73773
C         37.91714       50.05925       82.41685
C         36.82465       50.82675       81.68227
O         35.68683       50.75291       82.12736
C         38.06914       50.69106       83.81038
H         40.01493       50.48143       82.21147
H         37.58872       49.00457       82.54980
H         38.39368       51.75161       83.71664
H         37.10717       50.66528       84.36647
H         38.82744       50.13939       84.40421
N         37.09691       51.66749       80.64298
C         36.10242       52.60241       80.11042
C         35.96753       52.60478       78.58727
O         34.97848       53.14719       78.11360
C         36.47196       54.01484       80.62053
C         37.87214       54.37036       80.20146
O         38.85746       54.48564       81.10744
O         38.15030       54.44532       79.02170
H         38.07250       51.76310       80.33969
H         35.09377       52.35991       80.51079
H         36.43127       54.00400       81.73194
H         35.75222       54.78023       80.25765
N         36.94177       52.12926       77.75448
C         36.87712       52.22524       76.30154
C         36.60451       53.64523       75.84664
O         35.57396       53.85384       75.22159
H         37.78454       51.70947       78.15219
H         36.05729       51.56634       75.94159
H         37.82929       51.86052       75.85743
N         37.45358       54.67734       76.14022
C         37.11108       56.07389       75.86028
C         38.30554       57.00440       76.06332
O         38.67464       57.67688       75.10956
C         35.88762       56.48808       76.72669
C         35.36246       57.87668       76.44870
N         36.03981       58.97765       76.84714
O         34.28216       58.00661       75.89121
H         38.34813       54.45968       76.59817
H         36.82008       56.15348       74.78730
H         36.10853       56.38570       77.81044
H         35.05577       55.78956       76.50581
H         36.92570       58.89944       77.36382
H         35.65440       59.91715       76.67090
N         38.95890       57.11361       77.25779
C         40.06231       58.05461       77.43117
C         40.78066       57.94955       78.77401
O         40.43726       57.08792       79.56622
H         38.65190       56.53317       78.04395
H         39.64650       59.07781       77.31099
H         40.82565       57.86755       76.64532
N         41.80654       58.78932       79.12774
C         42.23460       59.93792       78.33206
C         43.69057       59.88659       77.87135
O         44.00476       60.68994       77.00301
C         41.93771       61.24588       79.10448
C         40.43146       61.39746       79.37603
O         42.64690       61.24811       80.31763
H         42.25462       58.64592       80.04678
H         41.65710       59.98074       77.38921
H         42.26525       62.10756       78.47857
H         42.56928       62.16231       80.69728
H         40.23255       62.35305       79.90541
H         39.86877       61.40921       78.41825
H         40.05070       60.56560       80.00609
N         44.63418       59.01698       78.36047
C         45.98528       58.92966       77.77608
C         46.34675       57.49003       77.41029
O         45.74653       56.58420       77.96864
C         47.09426       59.50568       78.70531
C         47.18672       58.75610       80.06104
C         46.90120       61.01787       78.90714
C         48.50707       59.01978       80.78959
H         44.39449       58.40066       79.15038
H         45.99031       59.51696       76.84000
H         48.05916       59.36484       78.17016
H         47.16111       57.65990       79.89477
H         46.32188       59.02281       80.70711
H         47.73889       61.45685       79.48521
H         46.87755       61.53195       77.92254
H         45.95037       61.22722       79.44155
H         49.35594       58.67658       80.15720
H         48.64544       60.09104       81.03199
H         48.52962       58.44101       81.73691
N         47.33484       57.15412       76.52102
C         48.05177       58.06894       75.63213
C         49.55697       57.96931       75.80937
O         50.09289       56.87289       75.71292
C         47.71009       57.69705       74.17640
C         46.22747       57.73689       73.92577
O         45.63914       56.72617       73.57485
O         45.53976       58.88207       74.09400
H         47.53000       56.14770       76.39441
H         47.74883       59.12115       75.77817
H         48.08471       56.67138       73.95768
H         48.21270       58.40453       73.48139
N         50.31152       59.09460       75.99183
C         51.77495       59.08767       76.03718
C         52.27592       59.67789       77.35524
O         51.46355       60.25715       78.06702
C         52.30637       59.95538       74.86441
C         51.85733       59.51258       73.49111
C         52.16386       58.22747       73.01214
C         51.16119       60.40609       72.65489
C         51.77730       57.84439       71.72270
C         50.78313       60.02087       71.36523
C         51.09034       58.74088       70.89944
H         49.83321       60.00804       76.04818
H         52.14841       58.04935       75.94556
H         53.40558       59.96135       74.84122
H         51.98635       61.00790       75.03580
H         52.70650       57.52552       73.63163
H         50.92320       61.40748       72.99196
H         52.01715       56.85442       71.35744
H         50.25786       60.71782       70.72413
H         50.80019       58.44619       69.89888
N         53.59053       59.63239       77.75828
C         54.69115       58.90084       77.13151
C         54.44583       57.40904       77.10186
O         54.57994       56.79469       76.05254
C         55.89991       59.19019       78.03909
C         55.55649       60.55233       78.58990
C         54.07439       60.37702       78.90254
H         54.90981       59.31186       76.12991
H         55.91015       58.50920       78.91988
H         56.88438       59.10153       77.53049
H         56.17752       60.87964       79.45003
H         55.65909       61.29305       77.76358
H         53.91798       59.76746       79.82066
H         53.60264       61.37744       79.00948
N         54.07957       56.76396       78.24664
C         53.89527       55.32416       78.33063
C         55.25763       54.64906       78.19139
O         56.08296       54.87160       79.06730
C         53.27202       54.94116       79.69566
C         51.84428       55.49478       79.84950
C         51.28442       55.17140       81.20417
O         51.87584       55.65876       82.31215
O         50.28138       54.48393       81.30848
H         53.92970       57.32900       79.09652
H         53.16791       55.01582       77.56218
H         53.91735       55.32814       80.51702
H         53.22431       53.83299       79.78423
H         51.20015       55.05084       79.05848
H         51.82970       56.59822       79.73071
N         55.62352       53.82639       77.16301
C         54.83666       53.48778       75.99332
H         53.85296       53.97644       75.94103
H         55.39836       53.79659       75.08653
H         54.68355       52.38986       75.95856
H         56.56874       53.41298       77.19813
Ca        40.94739       54.46670       80.24297
O         43.00869       55.46793       78.18077
H         43.07439       56.34033       77.71704
H         43.54120       55.58177       79.00674
O         40.95412       54.50695       76.31146
H         40.46386       54.15521       75.52699
H         41.55901       55.19300       75.93356
O         42.90217       55.45512       82.19140
H         42.31938       56.21713       81.94532
H         43.62719       55.47004       81.51753
O         41.21979       52.81365       82.55879
H         41.81320       52.29161       83.15394
H         40.64776       53.34307       83.16843
O         43.50167       52.75106       79.79861
H         43.60668       52.83087       80.77961
H         44.41056       52.89809       79.43591

Ca 1.0



