%chk=apoCaM-CA-Ng.loop1.water4.frame947.chk
%nprocshared=20
%mem=10GB
%nosave
#b3lyp/svp scf=(tight,noincore,xqc) Test 
#IOP(5/87=12) Density=Current Pop=(MK,readradii) iop(6/33=2) iop(6/42=6)

apoCaM-CA-Ng.loop1.water4.frame947 

   0  1 
C         87.40370       74.07720       65.85859
C         86.13160       73.96249       66.64274
O         85.08557       73.71630       66.05874
H         88.13235       73.32020       66.21677
H         87.21617       73.91302       64.77629
H         87.83345       75.09166       65.99769
N         86.15277       74.12980       67.99358
C         84.95535       74.03647       68.82768
C         83.91384       75.10417       68.46046
O         84.19854       75.96209       67.63571
C         85.34665       74.10537       70.32261
C         85.98696       75.40931       70.71907
O         86.22711       75.62806       71.89561
O         86.20785       76.37510       69.80578
H         87.06695       74.30502       68.44010
H         84.49707       73.03861       68.64965
H         86.04264       73.27357       70.56745
H         84.43054       73.97036       70.93667
N         82.65971       75.07017       69.00507
C         81.57979       75.97777       68.60429
C         80.96746       76.75154       69.77489
O         79.84533       77.22310       69.64591
C         80.52062       75.20735       67.77478
C         79.87937       74.00945       68.50084
C         78.87331       73.24668       67.61982
C         77.58573       74.03718       67.33458
N         76.65910       73.24448       66.52544
H         82.44099       74.32429       69.68158
H         81.95868       76.75761       67.90793
H         81.02011       74.82340       66.85749
H         79.74048       75.92633       67.44917
H         79.38532       74.33337       69.44158
H         80.68233       73.28774       68.75715
H         78.58674       72.31725       68.15826
H         79.36323       72.95225       66.66519
H         77.81258       74.97995       66.79450
H         77.09768       74.29414       68.30110
H         76.42584       72.34845       67.01225
H         75.77763       73.78793       66.38053
H         77.08551       73.03728       65.59298
N         81.68253       77.01759       70.90608
C         81.17684       77.85288       72.00977
C         80.88016       79.28473       71.54695
O         81.28116       79.63016       70.44524
C         82.23357       77.85159       73.15441
C         83.59048       78.37854       72.74878
O         83.79174       78.93094       71.53746
O         84.54078       78.22346       73.49838
H         82.63000       76.61732       70.97823
H         80.23646       77.39211       72.38124
H         82.36800       76.79104       73.45904
H         81.91732       78.40190       74.05332
N         80.21644       80.21189       72.30356
C         79.51297       79.96906       73.55363
C         78.18662       79.29067       73.31892
O         77.84584       79.00146       72.18084
H         80.15014       81.17037       71.93342
H         79.26655       80.95249       74.01037
H         80.12811       79.42784       74.28573
N         77.36473       79.02131       74.37225
C         76.02727       78.46853       74.19442
C         75.09720       79.55989       73.68266
O         74.88132       80.53024       74.39668
C         75.50405       77.89909       75.52809
C         74.16260       77.23958       75.36846
O         73.10303       77.68626       76.06880
O         74.02966       76.29082       74.61158
H         77.70834       79.21561       75.32605
H         76.09204       77.61807       73.47888
H         75.43574       78.71070       76.28604
H         76.22229       77.13846       75.90387
N         74.54598       79.48627       72.43851
C         73.69205       80.52810       71.88005
C         74.42478       81.36718       70.85100
O         73.81067       82.26120       70.28476
H         74.79381       78.69233       71.82910
H         73.34299       81.22952       72.66873
H         72.79114       80.05256       71.43740
N         75.75273       81.18040       70.60508
C         76.56836       82.01268       69.73077
C         77.62533       82.70335       70.58693
O         77.71151       82.39085       71.77020
C         77.24031       81.10278       68.67054
C         76.21341       80.30920       67.85454
O         78.02615       81.86987       67.79696
H         76.25122       80.43311       71.09925
H         75.94409       82.78986       69.23616
H         77.88345       80.37140       69.22044
H         78.77023       81.28698       67.49130
H         75.59560       79.66351       68.51477
H         75.54732       80.99599       67.29208
H         76.74051       79.64650       67.13545
N         78.45839       83.66383       70.08569
C         79.52440       84.24444       70.90117
C         79.10687       85.52004       71.61313
O         79.89944       85.99353       72.41324
C         80.87015       84.39394       70.12862
C         80.82175       85.48257       69.02728
C         81.32140       83.03288       69.56811
C         82.21263       85.81782       68.47500
H         78.32572       83.99400       69.11774
H         79.74688       83.54664       71.73831
H         81.62650       84.71650       70.87907
H         80.42559       86.42463       69.46262
H         80.15171       85.17538       68.19659
H         81.38652       82.29188       70.38622
H         80.60793       82.66279       68.80206
H         82.33041       83.08858       69.11582
H         82.87789       86.15537       69.29981
H         82.67850       84.94991       67.96790
H         82.13395       86.63980       67.73375
N         77.88984       86.11724       71.41875
C         77.47512       87.28857       72.19100
C         77.35727       88.51277       71.30696
O         77.38852       88.41827       70.08990
C         76.15665       86.99261       72.95599
C         76.35364       85.87180       73.97965
O         75.71456       88.13748       73.64128
H         77.23045       85.73582       70.72597
H         78.25558       87.54890       72.93799
H         75.38806       86.68526       72.20695
H         74.72527       88.07949       73.70646
H         77.11862       86.17365       74.72819
H         75.39877       85.67941       74.51341
H         76.67813       84.93295       73.48610
N         77.30565       89.72924       71.91628
C         77.26841       91.00823       71.23361
C         78.55904       91.74653       71.53498
O         79.25523       92.11691       70.59764
C         76.00596       91.79211       71.68752
C         75.92773       93.19336       71.07705
O         75.96539       91.91190       73.08898
H         77.34622       89.75341       72.94396
H         77.19983       90.87290       70.13062
H         75.12137       91.21274       71.32644
H         75.08774       91.56602       73.39880
H         75.94065       93.13886       69.96909
H         74.98634       93.68688       71.40072
H         76.77912       93.81854       71.42316
N         78.93301       92.00631       72.81956
C         80.10927       92.78623       73.17760
C         81.03135       92.02305       74.11405
O         80.69361       90.93462       74.56344
C         79.64738       94.12512       73.79823
C         78.83780       93.94964       75.09770
C         78.28369       95.28287       75.60104
C         77.46746       95.06863       76.88337
N         76.88376       96.32393       77.35035
H         78.33546       91.66518       73.58345
H         80.69573       93.02878       72.26397
H         79.01370       94.64146       73.04361
H         80.52510       94.77522       74.00202
H         79.48342       93.48947       75.87722
H         77.96462       93.29074       74.92292
H         77.62271       95.71633       74.81768
H         79.11808       95.98951       75.79958
H         78.12698       94.64890       77.67538
H         76.64828       94.33978       76.68836
H         76.22956       96.70368       76.62776
H         76.34747       96.14325       78.22955
H         77.63827       97.02035       77.54750
N         82.23912       92.56000       74.43960
C         83.19608       91.94905       75.35431
C         83.57754       90.52725       74.93785
O         83.45553       89.65009       75.78109
C         84.42003       92.88171       75.52955
C         85.44681       92.35482       76.54238
C         86.53367       93.36736       76.77371
O         87.24028       93.73868       75.84979
O         86.73225       93.87181       78.00680
H         82.49007       93.46522       74.01076
H         82.71952       91.88569       76.35992
H         84.04082       93.86098       75.89947
H         84.92571       93.06708       74.56276
H         85.90325       91.41281       76.16957
H         84.93981       92.14660       77.50913
N         84.02300       90.16820       73.69831
C         84.13693       91.05563       72.56263
H         84.86352       91.86326       72.75683
H         84.49512       90.48237       71.68120
H         83.14474       91.47508       72.30098
H         84.26115       89.17599       73.54016
Ca        85.71675       78.41574       70.53195
O         87.23514       80.38557       71.98897
H         86.51498       80.03501       72.57117
H         88.00672       80.50839       72.59539
O         85.68439       78.75447       66.70392
H         84.77576       78.58551       66.34841
H         86.29154       78.44472       65.98592
O         85.80460       81.66157       69.20165
H         86.66535       81.38769       68.79639
H         86.04765       82.00483       70.09774
O         83.26644       79.90701       68.27591
H         83.54812       80.18689       69.18213
H         83.38685       80.71781       67.72104

Ca 1.0



