%chk=apoCaM-CA-Ng.loop4.water5.frame599.chk
%nprocshared=20
%mem=10GB
%nosave
#b3lyp/svp scf=(tight,noincore,xqc) Test 
#IOP(5/87=12) Density=Current Pop=(MK,readradii) iop(6/33=2) iop(6/42=6)

apoCaM-CA-Ng.loop4.water5.frame599 

   -3  1 
C         47.96121      118.90115       76.31787
C         48.49527      120.29570       76.19138
O         49.29311      120.53711       75.29742
H         47.41946      118.62424       75.38982
H         48.80726      118.19828       76.47110
H         47.26715      118.80911       77.17936
N         48.09714      121.27291       77.05707
C         48.60132      122.64108       77.02856
C         48.28682      123.28517       75.69475
O         49.20387      123.65721       74.97306
C         50.11119      122.67907       77.36089
C         50.38744      121.98299       78.65933
O         49.81412      122.40357       79.80104
O         51.11089      121.00280       78.67805
H         47.40644      121.04000       77.78684
H         48.08379      123.22923       77.82013
H         50.45425      123.73440       77.43238
H         50.69782      122.18538       76.55745
N         46.98831      123.46047       75.31167
C         46.61964      124.07328       74.03742
C         46.05599      125.46598       74.27902
O         45.61414      125.73253       75.38849
C         45.65519      123.16447       73.21349
C         44.26907      123.00564       73.89190
C         46.32762      121.80742       72.94982
C         43.25249      122.25521       73.02898
H         46.24208      123.18536       75.96750
H         47.54678      124.21080       73.44464
H         45.47920      123.64644       72.23012
H         43.84136      124.01461       74.07384
H         44.36429      122.48581       74.86770
H         47.31818      121.97161       72.48049
H         46.47702      121.24513       73.89560
H         45.72657      121.18651       72.25521
H         42.27146      122.23818       73.54896
H         43.12351      122.76805       72.05174
H         43.56173      121.20495       72.85738
N         46.12062      126.46579       73.35103
C         46.73299      126.34643       72.03273
C         48.15516      126.85700       72.08665
O         49.05655      126.09360       71.77753
C         45.88870      127.02125       70.92471
C         45.74138      128.51804       71.03790
O         46.19312      129.24096       70.16380
O         45.08709      129.07138       72.07622
H         45.81958      127.40000       73.66166
H         46.79191      125.28854       71.71947
H         44.87577      126.56543       70.90367
H         46.37885      126.79423       69.95071
N         48.43200      128.11721       72.52187
C         49.75810      128.70603       72.56081
C         50.22047      129.07881       71.17270
O         50.21577      130.26029       70.85602
H         47.65930      128.70057       72.87167
H         50.48789      128.06174       73.09876
H         49.67580      129.65319       73.13830
N         50.66498      128.13410       70.29956
C         51.09329      128.43929       68.94069
C         50.38217      127.60465       67.88312
O         50.62287      127.86599       66.71278
C         52.63373      128.30417       68.81478
C         53.26080      126.98046       69.20083
O         54.46588      126.84068       69.07114
O         52.54458      125.96369       69.71615
H         50.74774      127.16950       70.63149
H         50.85345      129.49747       68.69626
H         53.10051      129.07800       69.46003
H         52.91762      128.53072       67.76330
N         49.52515      126.57863       68.17594
C         48.96734      125.72556       67.13352
C         50.03139      124.90264       66.41160
O         49.68462      124.22918       65.45262
H         49.26790      126.36867       69.14875
H         48.42498      126.36409       66.40175
H         48.23342      125.01746       67.57670
N         51.33845      124.89628       66.82343
C         52.44555      124.20192       66.17523
C         52.34163      122.68609       66.22922
O         53.23777      122.04632       65.69362
C         52.66805      124.74289       64.74357
C         53.09594      126.22068       64.77787
C         53.30818      126.76717       63.39210
N         54.52616      127.20932       63.00002
O         52.36578      126.82155       62.61616
H         51.59914      125.43508       67.64646
H         53.37757      124.42811       66.74260
H         51.75443      124.61007       64.12774
H         53.49218      124.17614       64.25808
H         54.03592      126.30414       65.36762
H         52.32768      126.83901       65.27692
H         55.33538      127.17108       63.63697
H         54.66318      127.58857       62.05149
N         51.34177      122.02995       66.89246
C         51.27224      120.57150       66.97213
C         51.36981      120.04386       68.40406
O         51.48056      118.83662       68.55396
C         50.00446      120.04517       66.24690
C         48.69967      120.59042       66.85172
C         50.06714      120.38178       64.74947
H         50.60585      122.57155       67.36326
H         52.14898      120.12389       66.45434
H         49.98883      118.93644       66.33602
H         47.82543      120.14043       66.33572
H         48.63450      120.33393       67.92706
H         48.62625      121.69249       66.73951
H         50.98503      119.94626       64.29933
H         49.18870      119.95481       64.22149
H         50.07941      121.48053       64.58584
N         51.34833      120.86365       69.49755
C         51.51470      120.38023       70.86975
C         52.68111      121.09815       71.53505
O         53.29737      121.95221       70.91469
C         50.19266      120.58560       71.63932
C         49.13016      119.64681       71.11692
N         48.00422      120.11298       70.53166
O         49.29304      118.44039       71.22906
H         51.20270      121.87490       69.37692
H         51.76602      119.29788       70.89370
H         49.87562      121.64847       71.55758
H         50.31502      120.35403       72.71751
H         47.84938      121.12253       70.40660
H         47.28861      119.45599       70.18589
N         53.03426      120.79375       72.82069
C         54.11154      121.48092       73.52948
C         54.92963      120.49966       74.37819
O         54.55313      119.34445       74.50989
C         53.46003      122.61335       74.35734
C         54.42272      123.45102       75.15973
C         54.29789      123.50470       76.55733
C         55.45041      124.17906       74.53211
C         55.19399      124.25718       77.31788
C         56.35328      124.92382       75.29807
C         56.22959      124.96448       76.69137
O         57.10882      125.68390       77.41691
H         52.46410      120.11287       73.34216
H         54.81042      121.93268       72.79274
H         52.70407      122.15451       75.03072
H         52.91722      123.29081       73.66134
H         53.50908      122.95963       77.06106
H         55.56613      124.15304       73.45562
H         55.08406      124.28424       78.39432
H         57.15293      125.46580       74.80862
H         57.05787      125.73381       78.38226
N         56.09611      120.91002       74.96032
C         56.95769      120.07919       75.78650
C         57.11986      120.75958       77.15054
O         58.12331      121.43061       77.35283
C         58.32300      119.92580       75.07316
C         59.26917      118.97568       75.83210
C         60.61876      118.91749       75.17827
O         61.71527      119.28823       75.86786
O         60.73240      118.53162       74.02605
H         56.42859      121.86429       74.78831
H         56.55304      119.05574       75.89090
H         58.79836      120.92642       74.96266
H         58.15647      119.51428       74.05335
H         58.82872      117.95571       75.86361
H         59.40988      119.32050       76.87764
N         56.18841      120.69945       78.14625
C         54.94928      119.92606       78.11432
C         55.20524      118.42909       78.01190
O         56.34657      117.99839       78.11542
C         54.11517      120.21904       79.39034
C         54.79973      119.74949       80.69442
C         54.02346      120.17196       81.90679
O         52.87892      119.78717       82.07428
O         54.59722      120.97099       82.82698
H         56.38986      121.26567       78.98447
H         54.36522      120.25811       77.22874
H         53.13120      119.71173       79.31828
H         53.93454      121.31602       79.43961
H         55.81699      120.17955       80.78156
H         54.89602      118.64251       80.69534
N         54.16238      117.57432       77.81593
C         54.31460      116.13649       77.71894
H         55.36968      115.81144       77.83765
H         53.70838      115.64976       78.51106
H         53.95300      115.79436       76.72682
H         53.20932      117.95618       77.72069
Ca        50.17019      121.17404       81.65843
O         51.02505      120.43365       84.50371
H         50.57752      120.30074       85.37663
H         51.71992      121.11668       84.67963
O         50.71075      118.12367       80.85956
H         50.38890      117.59162       80.08966
H         51.56990      117.70000       81.10980
O         48.29794      119.22968       83.32984
H         48.09164      119.64328       84.20552
H         48.42014      118.26829       83.53217
O         48.39872      122.54480       83.52400
H         48.50420      123.52853       83.49174
H         48.02312      122.36028       84.42091
O         52.22748      123.22292       82.35265
H         51.79019      123.95885       82.85017
H         53.03414      123.63425       81.95265

Ca 1.0



