%chk=apoCaM-CA-Ng.loop3.water3.frame508.chk
%nprocshared=20
%mem=10GB
%nosave
#b3lyp/svp scf=(tight,noincore,xqc) Test 
#IOP(5/87=12) Density=Current Pop=(MK,readradii) iop(6/33=2) iop(6/42=6)

apoCaM-CA-Ng.loop3.water3.frame508 

   0  1 
C        -23.23741       38.33935       55.99736
C        -24.11791       37.35586       56.70733
O        -25.24072       37.13010       56.27841
H        -22.30716       37.83250       55.66489
H        -23.75273       38.76626       55.11154
H        -22.97198       39.16500       56.69125
N        -23.65642       36.72552       57.82058
C        -24.44388       35.76375       58.58262
C        -25.68997       36.45766       59.13130
O        -25.55228       37.43265       59.85629
C        -23.55407       35.17467       59.69618
C        -24.23592       34.09877       60.47053
O        -24.38898       34.22488       61.67283
O        -24.65064       32.96762       59.87530
H        -22.69534       36.94269       58.13072
H        -24.73369       34.93025       57.90413
H        -23.23526       35.98968       60.38425
H        -22.64279       34.72843       59.24184
N        -26.93939       36.05207       58.75285
C        -28.15259       36.80343       59.09702
C        -28.49349       36.78844       60.58154
O        -29.33166       37.59276       60.97502
C        -29.37828       36.27963       58.31946
C        -29.25175       36.44028       56.79165
C        -30.42857       35.79238       56.04128
C        -31.78823       36.45553       56.32352
N        -32.86227       35.74606       55.63116
H        -27.01546       35.23877       58.12512
H        -27.98345       37.86299       58.80034
H        -30.26912       36.85134       58.65299
H        -29.52910       35.20712       58.57487
H        -28.33013       35.93297       56.43969
H        -29.17121       37.51740       56.52558
H        -30.47204       34.71592       56.31674
H        -30.22870       35.86071       54.94952
H        -31.75963       37.51463       55.98242
H        -32.01701       36.44249       57.40828
H        -32.69603       35.75774       54.60051
H        -32.91265       34.75819       55.97355
H        -33.77304       36.21784       55.83309
N        -27.93966       35.90594       61.45863
C        -28.23984       35.90752       62.89223
C        -26.99659       36.18434       63.72896
O        -27.13151       36.28049       64.93836
C        -28.98039       34.60054       63.31327
C        -28.25576       33.30915       63.03719
O        -27.01108       33.33809       62.55302
O        -28.81791       32.23888       63.20416
H        -27.28195       35.20386       61.08996
H        -28.94266       36.73464       63.13450
H        -29.92903       34.56565       62.73521
H        -29.24067       34.63895       64.39313
N        -25.75348       36.33892       63.16589
C        -24.55247       36.60693       63.94665
C        -24.21415       35.51261       64.94615
O        -23.33314       35.73648       65.76407
H        -25.63843       36.29397       62.14934
H        -24.71790       37.55520       64.50278
H        -23.68328       36.75686       63.26926
N        -24.91270       34.34140       64.98933
C        -24.85433       33.39438       66.08638
C        -24.63174       31.96622       65.60624
O        -25.32447       31.50859       64.70769
C        -26.20991       33.48735       66.81640
C        -26.29207       32.58128       68.01669
N        -25.43961       32.72961       69.05715
O        -27.14545       31.70786       68.05227
H        -25.62458       34.15478       64.28048
H        -24.06537       33.67884       66.81575
H        -27.02892       33.23885       66.10350
H        -26.36726       34.53396       67.15933
H        -24.71927       33.46610       69.05125
H        -25.50312       32.10736       69.87577
N        -23.76877       31.16414       66.28769
C        -23.64603       29.72994       66.08398
C        -22.93136       29.34759       64.81200
O        -21.82431       29.81798       64.59178
H        -23.25353       31.56534       67.08616
H        -24.64602       29.24758       66.16276
H        -23.02743       29.32489       66.91320
N        -23.45848       28.39817       63.98410
C        -22.73085       27.85216       62.83601
C        -22.54607       28.89261       61.73568
O        -23.00330       30.01570       61.89182
C        -23.45234       26.59509       62.28278
C        -23.63914       25.50292       63.31439
C        -22.53421       24.91958       63.96040
C        -24.93100       25.04110       63.62287
C        -22.72116       23.89902       64.89935
C        -25.11443       24.01780       64.55712
C        -24.00909       23.44315       65.19935
O        -24.17198       22.45308       66.10035
H        -24.37053       27.98618       64.23503
H        -21.72353       27.53117       63.17992
H        -22.86643       26.15556       61.44968
H        -24.43826       26.89173       61.87689
H        -21.52774       25.24953       63.73841
H        -25.79900       25.46700       63.13528
H        -21.86301       23.45819       65.39129
H        -26.11606       23.67076       64.77813
H        -25.04547       22.10447       66.32985
N        -21.87043       28.57101       60.58820
C        -21.61276       29.48315       59.47395
C        -22.89115       29.96785       58.80240
O        -23.72085       30.59712       59.43356
C        -20.67172       30.66332       59.88660
C        -20.58165       31.72960       58.75343
C        -19.27918       30.09000       60.21944
C        -19.64600       32.90097       59.05258
H        -21.49196       27.61752       60.49288
H        -21.04896       28.91631       58.69915
H        -21.07495       31.17523       60.78568
H        -21.59065       32.17244       58.60357
H        -20.26502       31.25621       57.79900
H        -18.59117       30.87881       60.58256
H        -19.34791       29.32333       61.01823
H        -18.83147       29.62000       59.31528
H        -19.92562       33.39070       60.00887
H        -18.59006       32.56569       59.09496
H        -19.72487       33.64832       58.23420
N        -23.02494       29.81437       57.45667
C        -24.04484       30.48507       56.66380
C        -25.45830       30.01019       56.92676
O        -26.32182       30.85081       57.12349
C        -23.73291       30.33677       55.15786
O        -23.79563       28.99757       54.73756
H        -22.28537       29.30403       56.95077
H        -23.98665       31.57951       56.86843
H        -22.73047       30.77490       54.93770
H        -24.46353       30.92394       54.56061
H        -22.86457       28.66078       54.67310
N        -25.78375       28.69168       56.81833
C        -27.15503       28.22321       56.64253
C        -28.10140       28.57638       57.78574
O        -27.89927       28.07600       58.88187
C        -27.17008       26.70585       56.43370
H        -25.01698       28.01032       56.71202
H        -27.49816       28.67525       55.69745
H        -26.79243       26.18734       57.34188
H        -28.20287       26.35717       56.22179
H        -26.52204       26.43375       55.57420
N        -29.18118       29.40697       57.63176
C        -29.48103       30.14826       56.40852
C        -29.87491       29.24153       55.23752
O        -30.33413       28.13744       55.49307
C        -30.61853       31.15214       56.65419
H        -29.77253       29.57710       58.46154
H        -28.56637       30.71963       56.18962
H        -31.55896       30.61738       56.91093
H        -30.35827       31.83535       57.48947
H        -30.80275       31.77563       55.75703
N        -29.77795       29.62284       53.92113
C        -29.19719       30.88294       53.45518
C        -28.03946       30.67205       52.47317
O        -27.36907       31.64393       52.15304
C        -30.30772       31.74928       52.83349
C        -29.94713       33.24363       52.81149
C        -31.07531       34.05043       52.24262
O        -30.88828       34.77135       51.27619
O        -32.30025       33.98604       52.79808
H        -30.15618       28.97683       53.21116
H        -28.79026       31.44401       54.30644
H        -31.21454       31.65790       53.46927
H        -30.56629       31.36609       51.82147
H        -29.02755       33.43095       52.22197
H        -29.76708       33.58173       53.85625
N        -27.74638       29.45355       51.92879
C        -26.67285       29.28087       50.97129
H        -25.69781       29.52590       51.44199
H        -26.64439       28.22806       50.61635
H        -26.83652       29.93965       50.09068
H        -28.30148       28.61999       52.16001
Ca       -25.99595       31.84009       61.25785
O        -27.10467       29.46026       63.49623
H        -26.86551       28.58418       63.89042
H        -28.06761       29.38178       63.28019
O        -25.67465       28.76677       60.82815
H        -26.33770       29.35636       60.39377
H        -25.15886       28.37683       60.07808
O        -28.38639       31.70545       59.52186
H        -27.75614       32.21557       58.95417
H        -28.67153       32.35044       60.21587

Ca 1.0



