%chk=apoCaM-CA-Ng.loop1.water5.frame1007.chk
%nprocshared=20
%mem=10GB
%nosave
#b3lyp/svp scf=(tight,noincore,xqc) Test 
#IOP(5/87=12) Density=Current Pop=(MK,readradii) iop(6/33=2) iop(6/42=6)

apoCaM-CA-Ng.loop1.water5.frame1007 

   0  1 
C         30.40291       12.82612       33.14989
C         29.77365       13.53482       34.31364
O         30.35345       13.55104       35.39032
H         31.37597       12.37408       33.43865
H         29.72709       12.02050       32.79369
H         30.57641       13.54693       32.32330
N         28.57059       14.15585       34.15914
C         27.89695       14.87461       35.23705
C         27.57652       13.91272       36.37419
O         26.86476       12.94136       36.15882
C         26.63398       15.55850       34.68677
C         25.95187       16.40364       35.71617
O         24.78937       16.18214       36.01292
O         26.61050       17.42728       36.29455
H         28.13018       14.12518       33.22583
H         28.58441       15.67538       35.59316
H         25.93185       14.79046       34.29409
H         26.92553       16.22540       33.84619
N         28.16208       14.08378       37.59202
C         28.15620       13.05631       38.62521
C         26.83814       12.82539       39.37356
O         26.42822       11.67241       39.37632
C         29.38673       13.21822       39.54731
C         29.45965       12.10589       40.61674
C         30.87442       11.86786       41.17131
C         31.76057       11.13213       40.14130
N         33.07027       10.80022       40.69742
H         28.79273       14.89166       37.71575
H         28.38803       12.09210       38.11176
H         29.44121       14.21054       40.03704
H         30.26289       13.15662       38.86984
H         29.10943       11.13362       40.20681
H         28.76626       12.38950       41.43894
H         30.77982       11.20125       42.05606
H         31.33561       12.82367       41.50244
H         31.90441       11.74212       39.22602
H         31.25436       10.18522       39.84396
H         33.61455       10.26459       39.98203
H         33.59026       11.67457       40.93664
H         32.96060       10.20282       41.54884
N         26.13549       13.73795       40.11116
C         26.28422       15.18470       40.12791
C         24.88258       15.79296       40.08421
O         24.07492       15.48463       40.95151
C         27.01923       15.65586       41.39218
C         27.16986       17.15056       41.36116
O         27.68229       17.68991       40.39382
O         26.72935       17.91125       42.37736
H         25.35386       13.35713       40.66968
H         26.88132       15.51368       39.25284
H         28.02873       15.20618       41.42005
H         26.47999       15.34067       42.30899
N         24.51185       16.63974       39.08859
C         23.14581       17.11464       38.92797
C         22.64986       18.06810       39.99679
O         21.48644       18.43406       39.90967
H         25.20301       16.89444       38.37354
H         22.47079       16.23218       38.88195
H         23.06195       17.65099       37.95777
N         23.45057       18.56316       40.99009
C         23.00363       19.55461       41.96926
C         22.46123       20.78967       41.24874
O         21.29720       21.11828       41.43786
C         21.93820       18.94853       42.92364
C         22.46312       17.78542       43.70947
O         21.94720       16.68440       43.60161
O         23.47641       17.96448       44.57401
H         24.43808       18.27919       41.03166
H         23.87057       19.86822       42.59214
H         21.04374       18.62703       42.34866
H         21.60909       19.72042       43.65326
N         23.19334       21.51996       40.35866
C         24.59370       21.31905       40.02635
C         25.48842       21.82887       41.12499
O         25.33495       22.98523       41.49286
H         22.70904       22.28423       39.86120
H         24.82445       21.95416       39.14358
H         24.80185       20.27427       39.72286
N         26.49431       21.06544       41.64558
C         27.42533       21.58959       42.64407
C         28.60360       20.64719       42.87091
O         28.42098       19.59298       43.45738
C         26.69504       21.88227       43.98760
C         27.63465       22.47421       45.04474
O         26.11509       20.69912       44.47909
H         26.63938       20.12149       41.26277
H         27.83583       22.54226       42.24180
H         25.89782       22.63430       43.80048
H         25.33717       20.96240       45.03687
H         28.09092       23.41369       44.66814
H         27.06207       22.70217       45.96840
H         28.44173       21.75989       45.30919
N         29.86021       21.00770       42.46813
C         31.09185       20.28343       42.78577
C         31.37349       20.42443       44.27325
O         30.55535       20.01380       45.08137
C         31.09816       18.80389       42.29864
C         30.76223       18.67494       40.79089
C         32.44521       18.12609       42.61955
C         31.71810       19.39805       39.83742
H         29.96881       21.88246       41.93318
H         31.91853       20.79606       42.24920
H         30.32359       18.23140       42.84734
H         29.74603       19.08011       40.61481
H         30.74736       17.59557       40.52130
H         33.29182       18.65611       42.13578
H         32.62725       18.11927       43.71413
H         32.43816       17.06926       42.27802
H         31.38718       19.22336       38.79212
H         31.70464       20.49256       40.01511
H         32.75427       19.01705       39.93641
N         32.50194       21.06878       44.68913
C         32.80184       21.39894       46.08514
C         33.96085       22.39316       46.17856
O         34.66221       22.62969       45.20243
C         33.12101       20.15082       46.96701
C         34.35258       19.36983       46.46607
O         32.00048       19.31164       47.11539
H         33.13066       21.41861       43.95211
H         31.91397       21.93114       46.49473
H         33.37024       20.50224       47.99143
H         32.05241       18.57290       46.45424
H         34.55589       18.51657       47.14753
H         34.17746       18.97495       45.44366
H         35.25235       20.01918       46.44756
N         34.19786       23.04286       47.35003
C         35.28808       23.99684       47.51641
C         36.61940       23.26961       47.43860
O         36.78285       22.26790       48.12001
C         35.15426       24.74915       48.86118
C         36.23737       25.83087       49.00156
O         33.89292       25.36699       48.90716
H         33.55960       22.87097       48.14311
H         35.21492       24.77364       46.72103
H         35.24371       24.01409       49.69500
H         33.70817       25.57826       49.85936
H         36.15990       26.56354       48.16839
H         36.10968       26.37477       49.96049
H         37.25323       25.38433       48.99153
N         37.63176       23.76729       46.66976
C         38.96841       23.18899       46.55131
C         38.95150       21.91656       45.72761
O         38.21289       20.99350       46.04216
C         39.65427       22.95655       47.92037
C         41.14701       22.62819       47.72857
C         41.85441       22.31753       49.05067
C         43.35312       22.08199       48.80529
N         44.04435       21.72585       50.04285
H         37.46506       24.65324       46.16824
H         39.59156       23.93917       46.01410
H         39.16415       22.12475       48.46815
H         39.57729       23.88012       48.53444
H         41.63771       23.50058       47.24300
H         41.26210       21.74301       47.06618
H         41.40029       21.40597       49.49828
H         41.72911       23.16596       49.75778
H         43.80457       23.00943       48.38611
H         43.49058       21.26229       48.06491
H         43.66588       20.82492       50.41562
H         45.06335       21.60540       49.84042
H         43.92680       22.48276       50.75458
N         39.81196       21.78582       44.67835
C         39.89210       20.58529       43.86335
C         38.61112       20.39397       43.05511
O         38.01796       19.33344       43.18994
C         41.17823       20.60333       42.99409
C         41.38509       19.34219       42.13199
C         41.63636       18.07076       42.90599
O         41.80462       17.02737       42.29599
O         41.71654       18.06211       44.25091
H         40.47364       22.55393       44.48509
H         40.00708       19.72130       44.54973
H         42.06418       20.72759       43.65602
H         41.17276       21.47449       42.31889
H         42.27430       19.50914       41.48612
H         40.50457       19.20529       41.46940
N         38.07495       21.33164       42.21585
C         38.59936       22.66399       41.99416
H         39.59698       22.63432       41.52490
H         37.93392       23.21353       41.29522
H         38.62668       23.23587       42.94368
H         37.20174       21.09183       41.72080
Ca        26.12407       17.12517       44.39289
O         28.31705       18.37483       46.99169
H         28.66327       19.04486       47.63296
H         28.30726       18.84533       46.12109
O         26.64323       15.72917       46.90048
H         26.15323       15.44168       47.71078
H         27.59531       15.54919       47.10353
O         28.96928       16.20070       44.00929
H         29.47134       16.57420       44.77625
H         28.77098       15.26613       44.26869
O         25.29417       18.99696       47.27732
H         25.35808       19.95947       47.50082
H         24.33797       18.85490       47.06424
O         24.50812       14.64611       44.48349
H         24.31536       15.18035       43.67260
H         25.44222       14.34059       44.36196

Ca 1.0



