%chk=apoCaM-CA-Ng.loop1.water3.frame1209.chk
%nprocshared=20
%mem=10GB
%nosave
#b3lyp/svp scf=(tight,noincore,xqc) Test 
#IOP(5/87=12) Density=Current Pop=(MK,readradii) iop(6/33=2) iop(6/42=6)

apoCaM-CA-Ng.loop1.water3.frame1209 

   0  1 
C         33.43993       74.45827       97.35329
C         33.05533       75.12791       98.63648
O         31.86911       75.18741       98.91541
H         34.53970       74.44269       97.21408
H         33.06272       73.41375       97.36080
H         32.97660       75.00130       96.50200
N         33.99745       75.67756       99.45899
C         33.66118       76.35138      100.71235
C         33.89266       77.84327      100.58791
O         34.56140       78.44864      101.41497
C         34.38514       75.69404      101.91209
C         35.89631       75.73686      101.88268
O         36.58529       75.17281      102.89235
O         36.50789       76.27575      100.97366
H         34.98277       75.64313       99.16205
H         32.57457       76.25469      100.91192
H         34.07249       74.62939      101.96296
H         34.04803       76.19351      102.84645
N         33.32325       78.50293       99.54519
C         33.40653       79.94358       99.36040
C         32.44751       80.64909      100.31315
O         32.92724       81.47289      101.07868
C         33.23983       80.33571       97.87279
C         34.32325       79.62842       97.03431
C         34.29912       80.03296       95.56139
C         35.39463       79.27230       94.79739
N         35.42406       79.65854       93.38915
H         32.82203       77.94233       98.84105
H         34.44219       80.27590       99.60492
H         33.37067       81.43648       97.78214
H         32.24129       80.08184       97.46820
H         34.18212       78.52771       97.09595
H         35.32477       79.87723       97.45045
H         34.47735       81.12715       95.47939
H         33.30617       79.79316       95.12247
H         35.20784       78.17703       94.87387
H         36.38702       79.48767       95.25391
H         36.17456       79.11527       92.90408
H         34.50475       79.44605       92.93866
H         35.63598       80.67905       93.30389
N         31.11012       80.37044      100.42173
C         30.36757       79.38264       99.64158
C         30.07111       78.14869      100.47631
O         30.36656       78.11943      101.66216
C         29.11599       80.02175       99.01028
C         28.21967       80.65628      100.02940
O         27.61925       79.91553      100.98084
O         28.05390       81.86318      100.00461
H         30.59208       80.85971      101.16914
H         30.96641       79.01288       98.80369
H         28.53540       79.27674       98.42562
H         29.45742       80.80987       98.30255
N         29.58285       77.03790       99.86364
C         29.41934       75.75137      100.51875
C         28.28488       75.72180      101.54204
O         27.17237       76.22661      100.88539
H         29.39565       77.07654       98.84951
H         30.36936       75.42932      100.99092
H         29.16437       75.00870       99.72755
N         28.05929       74.30931      101.88741
C         26.91183       73.98607      102.76376
C         26.47393       72.55494      102.45550
O         27.21804       71.85530      101.78050
C         27.34120       74.07433      104.25422
C         27.69407       75.46309      104.68561
O         26.84083       76.33316      104.70074
O         28.94057       75.74340      105.11000
H         28.94029       73.86184      102.23723
H         26.05624       74.65111      102.52858
H         28.21726       73.40740      104.41320
H         26.55453       73.72113      104.93944
N         25.31038       71.99532      102.90409
C         24.23050       72.67210      103.60467
C         23.42661       73.54844      102.67759
O         22.92242       73.03041      101.69050
H         25.16012       70.99353      102.70252
H         24.57668       73.20221      104.50547
H         23.51742       71.89644      103.96108
N         23.20523       74.86624      102.96138
C         22.31273       75.70858      102.16738
C         23.11734       76.86158      101.53051
O         23.59575       77.76472      102.48417
C         21.11846       76.16315      103.04983
C         20.04301       76.92890      102.27628
O         21.55553       76.95755      104.12352
H         23.65310       75.27475      103.79589
H         21.89154       75.10877      101.33218
H         20.61518       75.24486      103.43703
H         21.78669       76.34575      104.86998
H         19.67170       76.31781      101.42596
H         19.18802       77.14965      102.94932
H         20.42806       77.89718      101.89836
N         22.42379       77.54707      100.42325
C         23.32356       78.12764       99.39703
C         23.76142       79.51567       99.82431
O         24.52749       79.64769      100.76779
C         24.56224       77.23329       99.04733
C         24.15163       75.81715       98.56855
C         25.47898       77.91490       98.00588
C         25.30038       74.80775       98.66219
H         21.80632       76.86104       99.93093
H         22.72346       78.23953       98.46528
H         25.14169       77.12842       99.97040
H         23.75258       75.87119       97.53285
H         23.35790       75.39762       99.21571
H         25.83166       78.90376       98.36698
H         26.39094       77.31643       97.81234
H         24.93635       78.06455       97.04862
H         25.59865       74.68649       99.72530
H         24.95739       73.81664       98.30164
H         26.18427       75.11077       98.06814
N         23.32283       80.60240       99.13183
C         23.77927       81.95975       99.39388
C         22.67953       82.84413       99.95073
O         22.98158       84.00222      100.20191
C         24.43929       82.55967       98.12443
C         23.51996       82.61133       96.90002
O         25.57561       81.80552       97.78945
H         22.63913       80.46023       98.37511
H         24.56316       81.96123      100.18320
H         24.73817       83.61393       98.34495
H         26.35750       82.26374       98.19211
H         22.60025       83.19165       97.11840
H         24.05716       83.09819       96.05834
H         23.24226       81.59078       96.56413
N         21.41659       82.39135      100.22932
C         20.42505       83.22716      100.91152
C         20.94606       83.55615      102.30613
O         20.85338       82.72035      103.19383
C         19.03395       82.53952      100.97736
C         18.41245       82.38725       99.58698
O         19.13639       81.26392      101.56525
H         21.16412       81.42145       99.99031
H         20.30441       84.17262      100.33617
H         18.33634       83.18847      101.56032
H         18.80329       81.33118      102.49743
H         18.28252       83.38443       99.11516
H         19.04711       81.75729       98.92938
H         17.41318       81.90929       99.67346
N         21.63928       84.71577      102.51266
C         22.39067       85.06014      103.72031
C         23.47925       84.04223      104.03565
O         23.32666       82.86921      103.73395
C         21.50087       85.30812      104.94318
C         20.46491       86.40412      104.66527
C         19.67573       86.73795      105.93248
C         18.59884       87.79030      105.64602
N         17.86475       88.12596      106.86475
H         21.70385       85.38792      101.73319
H         22.90759       86.02428      103.50700
H         22.15701       85.63822      105.78025
H         20.98702       84.37239      105.24962
H         19.77014       86.05526      103.87027
H         20.97864       87.32616      104.31149
H         20.37700       87.12705      106.70401
H         19.19007       85.81671      106.32113
H         17.88941       87.39157      104.88672
H         19.07057       88.71159      105.23673
H         18.51530       88.54260      107.57002
H         17.12120       88.82393      106.63517
H         17.41541       87.26910      107.26215
N         24.64788       84.44112      104.61194
C         25.74668       83.51397      104.87821
C         26.10968       82.73504      103.62092
O         26.09673       81.51398      103.69479
C         26.99166       84.22022      105.46139
C         26.72668       84.83221      106.84479
C         27.96645       85.49415      107.37501
O         29.08853       84.77485      107.57063
O         27.96230       86.68684      107.63474
H         24.76758       85.44154      104.82870
H         25.41321       82.77200      105.64067
H         27.36098       85.00608      104.77267
H         27.79889       83.46183      105.57483
H         26.41657       84.03420      107.55380
H         25.91097       85.58272      106.78492
N         26.39221       83.30158      102.41298
C         26.40996       84.71387      102.09276
H         27.41122       84.98502      101.69996
H         25.65158       84.91379      101.30663
H         26.18832       85.37097      102.94645
H         26.57672       82.66377      101.63195
Ca        25.79393       77.30180      102.32000
O         28.54451       78.94841      104.17850
H         28.66202       78.69824      105.12905
H         28.81437       78.13836      103.67901
O         25.94710       78.93099      106.01783
H         26.49455       78.32086      106.57313
H         25.68702       79.65995      106.63489
O         23.31035       79.97743      104.34006
H         23.87793       80.53305      104.93013
H         22.95646       79.27074      104.93555

Ca 1.0



