%chk=apoCaM-CA-Ng.loop4.water6.frame627.chk
%nprocshared=20
%mem=10GB
%nosave
#b3lyp/svp scf=(tight,noincore,xqc) Test 
#IOP(5/87=12) Density=Current Pop=(MK,readradii) iop(6/33=2) iop(6/42=6)

apoCaM-CA-Ng.loop4.water6.frame627 

   -3  1 
C        102.13178       53.25415       -8.56251
C        103.24445       53.82920       -9.38495
O        103.06269       54.06396      -10.57069
H        101.22065       53.09960       -9.17722
H        102.45132       52.28249       -8.13082
H        101.89001       53.95509       -7.73452
N        104.43555       54.10655       -8.78899
C        105.58094       54.71730       -9.45351
C        105.20827       56.08343       -9.99270
O        105.52738       56.40858      -11.12907
C        106.18385       53.77895      -10.52242
C        106.52310       52.45443       -9.90432
O        107.37300       52.40284       -8.86144
O        105.99335       51.43294      -10.30910
H        104.53337       53.90584       -7.78115
H        106.35800       54.88719       -8.67394
H        107.10846       54.22986      -10.94356
H        105.46333       53.62834      -11.35604
N        104.49035       56.93320       -9.20586
C        104.08497       58.26460       -9.64313
C        105.24993       59.23650       -9.45062
O        106.12856       58.91966       -8.65975
C        102.77574       58.72980       -8.92118
C        102.94941       58.84929       -7.37914
C        101.61626       57.78640       -9.30231
C        101.72214       59.41347       -6.66176
H        104.19176       56.58866       -8.28500
H        103.84271       58.18411      -10.71743
H        102.50642       59.73337       -9.30259
H        103.79684       59.53442       -7.16622
H        103.17499       57.86788       -6.91693
H        100.64891       58.14745       -8.89992
H        101.50545       57.75154      -10.40705
H        101.79535       56.75516       -8.93159
H        100.84856       58.73767       -6.76040
H        101.94493       59.50841       -5.57773
H        101.46586       60.41615       -7.06242
N        105.37868       60.43361      -10.10182
C        104.50037       60.94735      -11.14901
C        104.42911       60.01085      -12.34597
O        103.32366       59.62529      -12.70538
C        104.86504       62.40243      -11.55993
C        106.28040       62.73038      -11.98411
O        106.53589       63.87013      -12.33745
O        107.28147       61.83552      -11.92647
H        106.19092       61.01116       -9.83691
H        103.47088       61.04095      -10.74834
H        104.64882       63.06137      -10.69101
H        104.17657       62.69971      -12.38162
N        105.54326       59.56158      -12.99130
C        105.47874       58.62544      -14.09827
C        104.75975       59.18954      -15.29879
O        104.35753       60.34583      -15.29926
H        106.47527       59.83120      -12.66445
H        104.95347       57.70688      -13.75762
H        106.50746       58.34079      -14.40976
N        104.55295       58.38585      -16.37592
C        103.84177       58.82188      -17.57269
C        102.38101       59.20698      -17.32092
O        101.78051       59.73641      -18.24482
C        103.98134       57.77046      -18.70587
C        103.63353       56.35387      -18.30971
O        104.48769       55.48340      -18.36798
O        102.40062       56.02559      -17.89592
H        104.94160       57.43132      -16.33858
H        104.33899       59.74637      -17.94432
H        105.04718       57.76845      -19.02387
H        103.37658       58.07640      -19.58703
N        101.74300       59.02689      -16.12163
C        100.37878       59.49065      -15.87745
C         99.31059       58.77437      -16.68914
O         98.15760       59.16970      -16.59851
H        102.23778       58.59178      -15.33171
H        100.33509       60.58033      -16.09618
H        100.12818       59.35231      -14.80320
N         99.61146       57.71156      -17.48984
C         98.68224       56.98614      -18.35046
C         97.62434       56.18449      -17.59850
O         96.84875       55.51593      -18.26793
C         98.04723       57.91686      -19.40912
C         99.11181       58.66710      -20.22576
C         98.48243       59.49858      -21.31172
N         98.62628       60.84468      -21.32622
O         97.84132       58.94937      -22.19527
H        100.57917       57.39410      -17.52846
H         99.27823       56.22887      -18.91019
H         97.36860       58.65238      -18.92811
H         97.44112       57.29335      -20.10276
H         99.81613       57.94540      -20.69373
H         99.68829       59.32440      -19.54606
H         99.16242       61.32973      -20.59187
H         98.19652       61.40714      -22.07540
N         97.54393       56.15350      -16.23355
C         96.56027       55.34611      -15.50896
C         97.22145       54.26908      -14.65059
O         96.49818       53.46287      -14.08149
C         95.62123       56.24936      -14.66128
C         96.37134       57.04949      -13.58210
C         94.82601       57.20393      -15.56339
H         98.20791       56.70277      -15.67576
H         95.91929       54.79174      -16.22913
H         94.88536       55.59272      -14.14572
H         95.64922       57.62989      -12.96973
H         96.91923       56.36571      -12.90314
H         97.09026       57.76675      -14.02971
H         94.24000       56.62538      -16.30910
H         94.11445       57.80243      -14.95563
H         95.50262       57.90015      -16.10336
N         98.57626       54.18196      -14.51373
C         99.26007       53.14880      -13.74264
C        100.22553       52.40646      -14.65507
O        100.27006       52.70288      -15.84312
C        100.02589       53.82207      -12.58059
C         99.09557       54.54874      -11.64295
N         99.22470       55.87945      -11.43478
O         98.22218       53.92640      -11.05667
H         99.18315       54.87611      -14.97135
H         98.54639       52.41113      -13.31366
H        100.77972       54.52551      -12.99782
H        100.56671       53.06598      -11.97571
H         99.95510       56.42199      -11.91768
H         98.59047       56.37098      -10.78783
N        101.08426       51.47254      -14.15320
C        102.15846       50.89174      -14.95054
C        102.23967       49.38270      -14.74743
O        101.54015       48.85161      -13.89489
C        103.44170       51.65227      -14.54317
C        104.68325       51.35042      -15.33799
C        105.84643       50.93341      -14.67604
C        104.71160       51.52486      -16.73204
C        107.01625       50.67591      -15.39217
C        105.88314       51.26492      -17.44979
C        107.03815       50.83938      -16.78403
O        108.16224       50.59939      -17.48805
H        101.07172       51.27213      -13.14210
H        101.96709       51.07318      -16.02970
H        103.62146       51.48744      -13.45695
H        103.24461       52.73893      -14.68042
H        105.84891       50.82225      -13.60101
H        103.83112       51.86284      -17.26331
H        107.90494       50.35681      -14.86254
H        105.89433       51.40004      -18.52380
H        108.98260       50.31177      -17.06239
N        103.05436       48.61994      -15.53451
C        103.18953       47.17225      -15.40590
C        104.66767       46.80767      -15.24662
O        105.21493       46.16895      -16.13617
C        102.58408       46.48039      -16.64943
C        101.07648       46.73120      -16.78261
C        100.50897       45.95722      -17.93796
O         99.55984       45.02590      -17.72312
O        100.90296       46.16585      -19.07445
H        103.58407       49.07610      -16.29080
H        102.62547       46.78255      -14.53531
H        102.73808       45.38224      -16.54479
H        103.10481       46.82495      -17.57099
H        100.87714       47.81317      -16.93537
H        100.56866       46.40471      -15.84884
N        105.42378       47.17401      -14.17008
C        104.93457       47.89915      -13.00026
C        103.93972       47.07842      -12.19365
O        103.74369       45.90427      -12.47989
C        106.12477       48.34928      -12.11874
C        106.89997       47.19768      -11.45524
C        108.12529       47.72678      -10.76855
O        109.23352       47.33955      -11.10329
O        108.01098       48.64144       -9.79101
H        106.42533       46.93172      -14.21343
H        104.43915       48.82195      -13.35427
H        105.75962       49.03518      -11.32681
H        106.82555       48.92128      -12.76363
H        107.21931       46.45179      -12.21108
H        106.25328       46.68467      -10.71200
N        103.26901       47.64526      -11.15448
C        102.31254       46.90264      -10.36242
H        101.48832       46.53391      -11.01009
H        102.81269       46.03994       -9.87293
H        101.88066       47.55736       -9.57618
H        103.43169       48.63657      -10.92341
Ca       107.68776       50.50095       -7.68792
O        110.66447       49.76467       -8.33600
H        111.19976       49.43122       -7.57277
H        110.96294       49.21956       -9.10661
O        109.64828       52.50443       -6.46060
H        110.53404       52.15058       -6.72563
H        109.38976       53.10535       -7.20358
O        104.58034       49.07430       -8.43482
H        105.46706       49.08238       -8.87362
H        104.49233       49.97711       -8.03816
O        109.13781       49.73909       -4.90978
H        108.80596       49.01622       -4.32024
H        110.04328       49.44299       -5.17923
O        108.83553       47.32468       -7.13814
H        109.06252       47.02884       -6.22106
H        109.10420       46.56782       -7.71731
O        106.06295       48.86301       -5.60651
H        106.19605       48.73415       -4.63410
H        105.36678       48.20323       -5.85147

Ca 1.0



