%chk=apoCaM-CA-Ng.loop2.water4.frame115.chk
%nprocshared=20
%mem=10GB
%nosave
#b3lyp/svp scf=(tight,noincore,xqc) Test 
#IOP(5/87=12) Density=Current Pop=(MK,readradii) iop(6/33=2) iop(6/42=6)

apoCaM-CA-Ng.loop2.water4.frame115 

   -2  1 
C         46.45345       54.29322       82.15828
C         47.54403       53.66997       81.33452
O         48.67796       54.11885       81.42088
H         45.48183       53.77829       82.00011
H         46.71616       54.22522       83.23401
H         46.33404       55.36153       81.88009
N         47.26174       52.64422       80.48343
C         48.25555       52.00033       79.63475
C         48.13701       52.52791       78.22686
O         49.15569       52.91299       77.68365
C         48.08921       50.47339       79.65988
C         49.14900       49.80139       78.82369
O         50.45230       49.95809       79.12827
O         48.83371       49.12226       77.85972
H         46.28090       52.33799       80.39458
H         49.28436       52.22764       80.00119
H         47.08044       50.20440       79.27619
H         48.18007       50.10514       80.70330
N         46.92847       52.63762       77.59736
C         46.73898       53.23615       76.27670
C         47.49760       54.55308       76.18947
O         47.35664       55.33470       77.11969
C         47.09658       52.22480       75.18509
H         46.07883       52.36896       78.11414
H         45.65389       53.45746       76.16635
H         46.49574       51.30173       75.32531
H         46.84943       52.63569       74.18307
H         48.17422       51.96045       75.22868
N         48.34287       54.86260       75.15344
C         49.20632       56.03623       75.17864
C         50.65381       55.63311       74.96224
O         51.37561       56.28861       74.22297
C         48.68465       57.12574       74.21723
C         47.32205       57.57666       74.67866
O         47.13116       57.74586       76.00629
O         46.38532       57.65206       73.89920
H         48.41761       54.24723       74.33224
H         49.20766       56.47990       76.19816
H         48.66132       56.77654       73.15934
H         49.36296       58.00267       74.28171
N         51.14921       54.55025       75.62794
C         52.53657       54.13403       75.59539
C         53.42924       55.03098       76.42893
O         54.63495       54.83257       76.39140
H         50.50744       53.97530       76.17510
H         52.87952       54.09694       74.53917
H         52.62408       53.11006       76.01959
N         52.92560       56.03752       77.20335
C         53.77868       56.98588       77.91156
C         54.58138       56.35739       79.03255
O         54.30674       55.23851       79.44525
C         52.92426       58.12907       78.49941
C         52.22927       58.89618       77.40430
N         50.87951       58.95306       77.34004
O         52.89861       59.47069       76.55890
H         51.90641       56.18101       77.24536
H         54.49402       57.41041       77.17447
H         53.55705       58.84359       79.06807
H         52.18329       57.69167       79.20540
H         50.29273       58.47601       78.03851
H         50.41985       59.47377       76.57952
N         55.60265       57.07712       79.58014
C         56.37804       56.65383       80.73264
C         56.28821       57.69507       81.82131
O         55.70655       58.75142       81.60371
H         55.83430       57.99321       79.16501
H         57.44411       56.52984       80.44530
H         56.00500       55.68650       81.12989
N         56.83384       57.45355       83.04686
C         56.76331       58.43093       84.13280
C         55.32964       58.82490       84.46727
O         55.15684       59.86372       85.09017
C         57.51334       57.96352       85.40696
C         56.92960       56.67862       86.02249
O         58.88848       57.81652       85.14953
H         57.31040       56.55267       83.19179
H         57.26525       59.35442       83.76317
H         57.41669       58.76366       86.17379
H         59.02104       56.99573       84.60936
H         57.48583       56.41939       86.94703
H         55.86400       56.82158       86.28799
H         57.00213       55.82177       85.32169
N         54.25768       58.07316       84.07140
C         52.88021       58.53038       84.20988
C         52.21201       58.58997       82.84561
O         52.64883       57.92461       81.91597
C         52.06687       57.68783       85.23580
C         52.00839       56.18632       84.85293
C         52.64769       57.89646       86.64806
C         51.05822       55.37257       85.73653
H         54.41577       57.16219       83.61748
H         52.87244       59.57041       84.58266
H         51.02801       58.08743       85.24548
H         53.02327       55.73555       84.90391
H         51.63544       56.09113       83.81141
H         53.68573       57.51411       86.71077
H         52.65483       58.97843       86.90132
H         52.03705       57.39160       87.42215
H         51.38790       55.35898       86.79468
H         50.03004       55.78914       85.67706
H         51.03281       54.32095       85.38105
N         51.11583       59.37749       82.67547
C         50.35126       59.45073       81.43703
C         49.91197       60.89321       81.18655
O         50.22237       61.43562       80.13526
C         49.21506       58.41288       81.53508
C         48.37298       58.31878       80.29596
O         48.36853       57.29371       79.63125
O         47.58118       59.34511       79.93959
H         50.76629       59.88687       83.49975
H         50.97832       59.13687       80.57474
H         48.56107       58.61507       82.40815
H         49.70053       57.42141       81.69745
N         49.20730       61.58111       82.12984
C         48.83734       62.99445       82.01925
C         47.63959       63.27372       82.91462
O         47.66979       62.89206       84.07516
C         50.01395       63.93423       82.35594
C         50.65002       63.64394       83.69015
C         50.21912       64.28921       84.86290
C         51.70111       62.71750       83.76124
C         50.82431       63.99226       86.08933
C         52.30701       62.43345       84.98498
C         51.86641       63.06308       86.14921
H         48.96294       61.08625       83.00010
H         48.55191       63.21344       80.97014
H         49.66526       64.99166       82.31991
H         50.79346       63.85387       81.56820
H         49.41429       65.01344       84.82998
H         52.05095       62.21807       82.86598
H         50.48822       64.48227       86.99368
H         53.12008       61.72719       85.03175
H         52.33732       62.83196       87.09539
N         46.52858       63.91812       82.45003
C         45.28681       64.05624       83.19395
C         44.75127       62.73071       83.71523
O         44.31079       62.67560       84.85424
C         44.32378       64.63594       82.14505
C         45.24786       65.52233       81.34665
C         46.45743       64.60921       81.17617
H         45.43495       64.77893       84.02714
H         43.98288       63.83578       81.44673
H         43.42939       65.13698       82.57172
H         44.83953       65.93299       80.39947
H         45.53484       66.37605       82.00620
H         46.32659       63.86748       80.35892
H         47.34370       65.25634       80.98866
N         44.74440       61.62348       82.91771
C         44.12781       60.35327       83.30461
C         44.79783       59.67097       84.49521
O         44.21969       58.72199       85.00882
C         44.12251       59.37907       82.10732
C         43.29459       59.91576       80.92229
C         43.44278       59.01728       79.73438
O         43.86440       59.52551       78.56030
O         43.17037       57.83213       79.81895
H         45.15666       61.71213       81.97691
H         43.07345       60.56588       83.58932
H         43.68206       58.40363       82.41624
H         45.17575       59.19703       81.79354
H         43.63609       60.92542       80.61574
H         42.22793       59.98550       81.22086
N         46.00670       60.06277       84.98350
C         46.62052       59.41933       86.12675
H         47.61077       59.87789       86.33511
H         45.97625       59.54687       87.02309
H         46.76642       58.33599       85.92785
H         46.52174       60.82362       84.53012
Ca        45.51511       58.60570       77.32773
O         45.01800       60.45173       75.29954
H         45.37583       60.93888       74.51787
H         44.95820       59.51230       74.99400
O         43.66795       56.90778       75.94861
H         44.30216       56.21804       75.62868
H         43.28924       56.53119       76.78240
O         45.20736       55.87459       79.26867
H         45.14195       55.03934       78.74265
H         44.54950       55.75253       79.99796
O         47.81566       60.52723       77.34058
H         48.29873       60.66866       76.48900
H         48.35346       61.01009       78.01686

Ca 1.0



