%chk=apoCaM-CA-Ng.loop4.water4.frame332.chk
%nprocshared=20
%mem=10GB
%nosave
#b3lyp/svp scf=(tight,noincore,xqc) Test 
#IOP(5/87=12) Density=Current Pop=(MK,readradii) iop(6/33=2) iop(6/42=6)

apoCaM-CA-Ng.loop4.water4.frame332 

   -3  1 
C         67.45300       50.49455       51.40680
C         67.78755       49.40475       50.43701
O         68.65726       48.61359       50.74270
H         66.38980       50.40896       51.71192
H         68.08663       50.40727       52.31829
H         67.63577       51.48249       50.93952
N         67.11185       49.27774       49.25929
C         67.34604       48.20363       48.29683
C         67.17656       46.83100       48.90673
O         68.14453       46.10540       49.04769
C         68.59400       48.37911       47.39267
C         69.93214       48.84248       47.93219
O         70.68667       48.19244       48.84629
O         70.41394       49.84702       47.43191
H         66.34815       49.94210       49.06281
H         66.52743       48.23804       47.53975
H         68.30294       49.15308       46.64410
H         68.73683       47.44470       46.80743
N         65.91536       46.42443       49.23939
C         65.46560       45.11797       49.72624
C         65.53204       44.03655       48.63078
O         64.48661       43.55575       48.21578
C         66.09042       44.67755       51.09243
C         65.07632       43.82187       51.91038
C         66.60805       45.83834       51.96372
C         63.88632       44.61732       52.49502
H         65.16312       47.12047       49.11049
H         64.38422       45.27258       49.90938
H         66.98517       44.05771       50.87508
H         65.60763       43.36761       52.77091
H         64.68861       42.99397       51.27915
H         67.46020       46.34370       51.47665
H         65.82356       46.59679       52.15507
H         66.99060       45.44568       52.93080
H         63.22190       43.93769       53.06626
H         64.23658       45.39759       53.20243
H         63.26646       45.11019       51.72126
N         66.71647       43.65087       48.07449
C         66.84699       42.74907       46.93383
C         66.60679       41.28333       47.27721
O         65.90631       40.63799       46.51055
C         68.23945       42.90272       46.26412
C         68.47970       44.27830       45.68480
O         67.63869       45.16046       45.76781
O         69.63374       44.52999       45.03893
H         67.58195       44.06263       48.42244
H         66.12708       43.04975       46.13735
H         68.31264       42.18333       45.41902
H         69.05499       42.67355       46.97797
N         67.17656       40.63433       48.33662
C         67.87918       41.30197       49.41908
C         68.37526       40.31916       50.46190
O         67.58452       39.47379       50.85719
H         67.02722       39.61497       48.40407
H         67.14475       41.95401       49.93013
H         68.68170       41.92950       49.02747
N         69.61327       40.36837       51.04911
C         70.66228       41.36409       50.84256
C         70.09289       42.75324       51.11454
O         70.04152       43.56907       50.20562
C         71.35292       41.14641       49.47618
C         72.59325       41.98412       49.32835
O         73.58524       41.89158       50.23572
O         72.72747       42.71922       48.36498
H         69.80099       39.66639       51.77430
H         71.46947       41.17410       51.58233
H         70.67616       41.31928       48.61926
H         71.67775       40.08466       49.43159
N         69.56345       43.09067       52.32897
C         69.68842       42.30328       53.54734
C         68.45066       41.51064       53.84950
O         67.50547       41.53690       53.07379
H         69.06079       43.98397       52.40994
H         69.92721       42.99002       54.38816
H         70.52494       41.58438       53.48471
N         68.40129       40.75224       54.98173
C         67.28033       39.87684       55.28907
C         66.32248       40.51786       56.27657
O         65.28091       39.92630       56.52504
C         67.76058       38.50902       55.83544
C         68.70576       37.71743       54.91114
C         70.10612       38.27790       54.84456
N         70.87473       38.36296       55.95564
O         70.56685       38.62877       53.77207
H         69.18138       40.81170       55.65521
H         66.69059       39.69367       54.36327
H         66.85420       37.88182       55.98242
H         68.23745       38.63732       56.83165
H         68.25237       37.64875       53.89779
H         68.80098       36.68529       55.31162
H         70.52166       38.04949       56.87072
H         71.83587       38.73181       55.89742
N         66.58825       41.71829       56.87228
C         65.66011       42.37156       57.78992
C         66.20180       42.40624       59.21095
O         65.49224       42.90087       60.07744
C         65.26536       43.78012       57.26375
C         64.60005       43.66856       55.88479
C         66.44782       44.76120       57.19670
H         67.48106       42.19330       56.68393
H         64.71619       41.78736       57.86150
H         64.51230       44.20818       57.96241
H         64.25360       44.66667       55.54542
H         65.31360       43.26554       55.13577
H         63.71824       42.99451       55.93271
H         66.09038       45.75828       56.86046
H         66.90957       44.88527       58.19827
H         67.22298       44.42020       56.48061
N         67.40524       41.84848       59.54631
C         67.87624       41.73819       60.92130
C         69.21144       42.44348       61.14838
O         69.63298       42.48700       62.29417
C         67.99807       40.22860       61.24178
C         68.35298       39.92293       62.67445
N         67.51540       40.26107       63.68149
O         69.39988       39.34464       62.92581
H         67.98992       41.41365       58.81736
H         67.13868       42.19777       61.61426
H         68.76798       39.78908       60.56732
H         67.03118       39.72561       61.02166
H         66.61970       40.73112       63.48679
H         67.75686       40.03831       64.65843
N         69.93912       43.00669       60.13106
C         71.27434       43.58732       60.33634
C         71.79553       44.26995       59.05828
O         71.29014       44.02555       57.97319
C         72.23178       42.45564       60.83881
C         73.69211       42.78672       61.04007
C         74.10448       43.81853       61.89952
C         74.66820       42.01479       60.38446
C         75.46754       44.09629       62.06421
C         76.02584       42.28705       60.55662
C         76.43193       43.33191       61.38903
O         77.74770       43.58809       61.53313
H         69.54343       43.00021       59.18334
H         71.17919       44.38710       61.10365
H         72.14905       41.61024       60.12071
H         71.88135       42.07654       61.81720
H         73.37316       44.41558       62.42920
H         74.38021       41.19852       59.73307
H         75.77368       44.90464       62.71577
H         76.76160       41.68501       60.03790
H         78.07544       44.30661       62.09186
N         72.80335       45.18974       59.15269
C         73.43442       45.93182       58.05545
C         72.55130       46.95446       57.34869
O         73.09559       47.66297       56.51162
C         74.04016       45.00407       56.97877
C         74.98567       43.94776       57.54022
C         75.57923       43.13142       56.42930
O         76.28289       43.66178       55.58405
O         75.33543       41.80910       56.35827
H         73.18166       45.38478       60.08828
H         74.26700       46.51604       58.51160
H         74.60771       45.63382       56.25753
H         73.22673       44.49395       56.41881
H         74.40143       43.28217       58.19737
H         75.80254       44.42319       58.12489
N         71.21469       47.09853       57.58270
C         70.38285       48.02224       56.81058
C         69.74109       49.08771       57.69065
O         69.08514       49.96065       57.13828
C         69.28752       47.22112       56.07071
C         69.81320       46.10035       55.14854
C         70.43884       46.58258       53.86688
O         71.43860       47.28189       53.87181
O         69.88831       46.18852       52.69881
H         70.74994       46.51547       58.29096
H         70.99061       48.56842       56.05845
H         68.63098       47.89820       55.47994
H         68.66110       46.73771       56.85100
H         68.93972       45.47632       54.86141
H         70.52135       45.44448       55.69571
N         69.87480       49.09439       59.05105
C         69.27664       50.10232       59.90468
H         68.55878       49.61751       60.59911
H         70.07233       50.59743       60.49947
H         68.73483       50.88299       59.33062
H         70.41116       48.35763       59.52822
Ca        70.47746       46.76202       50.59143
O         73.41876       47.23057       48.91358
H         73.40615       48.21264       48.78802
H         74.37457       47.00715       49.03742
O         72.26523       49.10549       51.42931
H         72.11318       49.72163       50.66963
H         71.45730       49.20702       51.99227
O         72.81417       45.24540       51.72029
H         73.70635       45.16648       52.14131
H         72.86714       44.67584       50.91248
O         71.13164       45.38439       47.90152
H         71.24536       44.76913       47.13569
H         71.72556       45.01929       48.60359

Ca 1.0



