%chk=apoCaM-CA-Ng.loop4.water5.frame914.chk
%nprocshared=20
%mem=10GB
%nosave
#b3lyp/svp scf=(tight,noincore,xqc) Test 
#IOP(5/87=12) Density=Current Pop=(MK,readradii) iop(6/33=2) iop(6/42=6)

apoCaM-CA-Ng.loop4.water5.frame914 

   -3  1 
C          8.77248       -8.85943       32.03506
C          9.03622       -9.93248       31.01952
O          8.46208       -9.86542       29.94577
H          7.69317       -8.85583       32.29459
H          9.34682       -9.02974       32.96902
H          9.05392       -7.87113       31.61673
N          9.85873      -10.97851       31.32561
C         10.16461      -12.13169       30.47867
C         11.16230      -11.81695       29.36620
O         12.24617      -12.38157       29.39002
C          8.90078      -12.82023       29.92397
C          7.86819      -13.08823       30.98208
O          8.16439      -13.86065       32.04342
O          6.75017      -12.60715       30.87893
H         10.25646      -11.00441       32.27709
H         10.66528      -12.87541       31.14193
H          9.20602      -13.78514       29.46966
H          8.43643      -12.19797       29.13084
N         10.84544      -10.98665       28.32999
C         11.69287      -10.68534       27.17840
C         12.17668      -11.94341       26.45601
O         13.37606      -12.08113       26.26292
C         12.83176       -9.64887       27.50291
C         13.90174      -10.13026       28.52429
C         12.20096       -8.31800       27.95357
C         15.11250       -9.19603       28.62172
H          9.90520      -10.58100       28.29500
H         11.05345      -10.16396       26.43129
H         13.35301       -9.45406       26.53780
H         14.30756      -11.11365       28.21778
H         13.45745      -10.23469       29.53482
H         11.46842       -7.96425       27.19755
H         11.68021       -8.44103       28.92677
H         12.96275       -7.51959       28.05140
H         15.59050       -9.07862       27.62531
H         14.83354       -8.19919       29.01566
H         15.86024       -9.63214       29.31763
N         11.34601      -12.90528       25.95492
C          9.88556      -12.94161       26.01764
C          9.42417      -14.38621       26.10628
O          9.88362      -15.20046       25.31544
C          9.24701      -12.24184       24.80197
C          9.63195      -12.83627       23.47556
O          8.77840      -13.32859       22.75501
O         10.91281      -12.80401       23.06216
H         11.80680      -13.66380       25.42653
H          9.50325      -12.40248       26.89998
H          9.52546      -11.16759       24.80098
H          8.14188      -12.29904       24.92368
N          8.48367      -14.77688       27.01243
C          8.01175      -16.14722       27.07566
C          6.79893      -16.29286       26.20585
O          6.88304      -16.95020       25.17758
H          8.00803      -14.06735       27.58701
H          7.80032      -16.44290       28.12645
H          8.80346      -16.83831       26.71281
N          5.62615      -15.70157       26.55705
C          4.43285      -15.78745       25.72381
C          4.43997      -14.77902       24.58323
O          3.67316      -14.97453       23.65087
C          3.13635      -15.69858       26.56688
C          3.10244      -14.56014       27.56130
O          2.97541      -14.83141       28.87359
O          3.20332      -13.40026       27.20776
H          5.58498      -15.20916       27.46166
H          4.40848      -16.79514       25.24744
H          3.04803      -16.63680       27.15496
H          2.25475      -15.64684       25.88976
N          5.22963      -13.66316       24.58448
C          5.19223      -12.67259       23.50890
C          3.85381      -11.94295       23.36839
O          3.72575      -11.13243       22.46406
H          5.87568      -13.49733       25.37047
H          5.44564      -13.17458       22.55198
H          5.96801      -11.89968       23.70550
N          2.84174      -12.13971       24.25936
C          1.55435      -11.45889       24.31404
C          1.68095       -9.95327       24.14851
O          0.94136       -9.36451       23.37173
C          0.49533      -12.09008       23.38478
C          0.43049      -13.62395       23.50866
C         -0.70155      -14.23435       22.71584
N         -0.78703      -15.57875       22.59095
O         -1.54254      -13.52636       22.18028
H          3.00253      -12.78075       25.03141
H          1.16936      -11.62898       25.34673
H          0.70819      -11.83690       22.32489
H         -0.49094      -11.65475       23.66751
H          0.32233      -13.93566       24.57121
H          1.38236      -14.03055       23.11355
H         -0.07617      -16.19281       23.01499
H         -1.55273      -16.00641       22.04896
N          2.60194       -9.26654       24.87922
C          2.70595       -7.80648       24.88075
C          2.40677       -7.23631       26.25626
O          2.10738       -6.05047       26.32757
C          4.08424       -7.30173       24.36923
C          5.26496       -7.96789       25.09800
C          4.22013       -7.49383       22.85518
H          3.23399       -9.81481       25.47858
H          1.91963       -7.37498       24.22197
H          4.13853       -6.20409       24.54835
H          5.30351       -9.05714       24.88085
H          6.22401       -7.52443       24.75657
H          5.18527       -7.82165       26.19545
H          5.18872       -7.07651       22.50438
H          4.16739       -8.56466       22.57865
H          3.40750       -6.94503       22.33162
N          2.47652       -7.98793       27.39205
C          2.15147       -7.45757       28.70586
C          1.45205       -8.50064       29.55934
O          1.29005       -9.63926       29.13368
C          3.41986       -6.89399       29.38554
C          4.50692       -7.90034       29.68176
N          5.65039       -7.48346       30.26909
O          4.37022       -9.08244       29.40357
H          2.81986       -8.95507       27.34604
H          1.43987       -6.60874       28.59306
H          3.13696       -6.40652       30.34217
H          3.84602       -6.10680       28.72646
H          5.78506       -6.49195       30.51621
H          6.40183       -8.15381       30.47624
N          0.98931       -8.15839       30.78891
C          0.32368       -9.10314       31.68637
C         -0.30451       -8.36048       32.86698
O         -0.06284       -7.16721       33.00967
C          1.37019      -10.13830       32.18428
C          0.77736      -11.34098       32.86883
C          0.02500      -12.26669       32.12629
C          0.99555      -11.57111       34.23683
C         -0.49934      -13.40616       32.74198
C          0.45978      -12.70630       34.85350
C         -0.28504      -13.62878       34.10974
O         -0.78419      -14.72448       34.71661
H          1.10115       -7.17070       31.06002
H         -0.49467       -9.58920       31.10984
H          2.08294       -9.60570       32.85273
H          1.97306      -10.53849       31.34221
H         -0.13990      -12.11442       31.06647
H          1.57516      -10.87172       34.82644
H         -1.06713      -14.11673       32.15412
H          0.62903      -12.87215       35.90979
H         -1.29692      -15.39019       34.23595
N         -1.13920       -8.98005       33.75215
C         -1.70928       -8.26660       34.89050
C         -1.28290       -8.92849       36.18861
O         -1.91761       -9.89687       36.58417
C         -3.24054       -8.14843       34.79575
C         -3.67246       -7.36702       33.54732
C         -5.15287       -7.12036       33.56220
O         -5.58277       -5.97755       33.56634
O         -6.01415       -8.15521       33.57650
H         -1.38367       -9.97292       33.61900
H         -1.36218       -7.22366       34.90092
H         -3.59267       -7.59403       35.69512
H         -3.71249       -9.15561       34.79239
H         -3.40189       -7.93357       32.63056
H         -3.14469       -6.38740       33.52402
N         -0.18233       -8.53460       36.89837
C          0.76284       -7.50717       36.45811
C          0.19794       -6.09487       36.46628
O         -0.89283       -5.87001       36.97326
C          2.06655       -7.57283       37.27833
C          1.91611       -7.24756       38.77603
C          3.26487       -7.36089       39.42101
O          3.93462       -8.52727       39.35088
O          3.78103       -6.39288       39.95589
H          0.04468       -9.08616       37.73955
H          1.04609       -7.75793       35.41323
H          2.80462       -6.86697       36.83997
H          2.48091       -8.59939       37.16851
H          1.22467       -7.95741       39.27470
H          1.51777       -6.21760       38.90802
N          0.90930       -5.09372       35.87105
C          0.45904       -3.72088       35.77653
H          1.20474       -3.05601       36.26045
H          0.37659       -3.43909       34.70484
H         -0.52736       -3.56287       36.25870
H          1.81612       -5.31534       35.43331
Ca         6.11363       -8.65871       39.90982
O          5.60798      -11.22869       41.52145
H          6.07203      -10.96403       42.35513
H          6.27398      -11.77020       41.02772
O          5.49833       -7.40613       42.49025
H          6.16347       -6.67624       42.56136
H          5.92879       -8.17959       42.93405
O          5.31793       -8.21693       36.63452
H          5.39305       -7.23920       36.49740
H          5.00979       -8.56829       35.76167
O          8.56671       -9.43236       41.44111
H          8.81549       -9.76476       40.54197
H          8.61766       -8.44632       41.36361
O          5.13098      -11.09247       38.15878
H          4.72625      -11.92150       38.51804
H          5.62930      -11.38497       37.35491

Ca 1.0



