%chk=apoCaM-CA-Ng.loop1.water4.frame417.chk
%nprocshared=20
%mem=10GB
%nosave
#b3lyp/svp scf=(tight,noincore,xqc) Test 
#IOP(5/87=12) Density=Current Pop=(MK,readradii) iop(6/33=2) iop(6/42=6)

apoCaM-CA-Ng.loop1.water4.frame417 

   0  1 
C        106.85692       97.95757       78.42094
C        105.70248       98.79402       77.95330
O        104.60191       98.27350       77.84212
H        107.78965       98.55689       78.49061
H        106.63167       97.54067       79.42451
H        107.02595       97.12523       77.70664
N        105.88682      100.10811       77.65041
C        104.82276      100.99047       77.19362
C        105.08952      101.46702       75.77069
O        104.36610      102.33711       75.31439
C        104.69790      102.19551       78.15521
C        104.37608      101.77833       79.56678
O        105.24569      101.03017       80.27232
O        103.33383      102.13826       80.09053
H        106.83240      100.51269       77.74062
H        103.84019      100.47618       77.18542
H        103.87773      102.85584       77.79447
H        105.64025      102.78494       78.16078
N        106.07613      100.92815       74.99022
C        106.40192      101.42699       73.65843
C        106.09788      100.41419       72.56389
O        106.45597       99.25855       72.74054
C        107.88806      101.81004       73.57711
C        108.20423      103.04736       74.42553
C        109.51842      103.68441       73.96347
C        109.79911      104.98913       74.71452
N        110.94808      105.68100       74.13187
H        106.63519      100.13798       75.34233
H        105.84460      102.34395       73.45371
H        108.09314      102.06899       72.52173
H        108.55914      100.96079       73.83263
H        108.21552      102.78571       75.50610
H        107.41223      103.80696       74.25535
H        109.41604      103.92929       72.88188
H        110.36574      102.97597       74.08804
H        109.98941      104.76599       75.78721
H        108.91228      105.65895       74.64525
H        110.73857      105.93847       73.13883
H        111.13030      106.55763       74.67086
H        111.79644      105.07108       74.16441
N        105.54782      100.75167       71.34622
C        105.11549      102.08306       70.89695
C        106.23394      103.11783       71.00856
O        106.09180      104.06787       71.76318
C        103.80237      102.51321       71.59513
C        102.65333      101.61255       71.26017
O        101.58604      101.77108       71.82858
O        102.77195      100.62973       70.34717
H        105.46039       99.99495       70.64968
H        104.84526      102.03852       69.81941
H        103.51930      103.54261       71.28963
H        103.91048      102.49737       72.68998
N        107.37672      103.05553       70.26753
C        107.62638      102.04117       69.25447
C        108.82292      102.38075       68.37202
O        109.61000      103.24466       68.73313
H        108.05231      103.82437       70.39571
H        106.74516      102.02837       68.59485
H        107.73151      101.03070       69.70285
N        108.99971      101.82148       67.13756
C        108.09396      100.84273       66.54055
C        107.18048      101.49976       65.52077
O        107.41833      102.63487       65.12964
C        108.87707       99.65345       65.94542
C        109.78957       99.99525       64.78686
O        110.45417       99.11073       64.27273
O        109.87961      101.24743       64.29598
H        109.77721      102.18324       66.56557
H        107.43216      100.42238       67.32256
H        108.15467       98.88692       65.59163
H        109.48998       99.20141       66.75478
N        106.05583      100.84802       65.10694
C        105.08820      101.40587       64.17512
C        104.59822      102.75998       64.62660
O        104.72584      103.70559       63.86057
H        105.85177       99.91714       65.50082
H        104.22501      100.71137       64.09171
H        105.55483      101.49896       63.16962
N        104.09327      102.94416       65.88151
C        103.74961      104.26948       66.39816
C        104.80527      104.71052       67.39349
O        105.63011      103.90058       67.77728
C        102.31045      104.31288       66.96759
C        102.12505      103.43022       68.20655
O        101.39626      103.90192       65.98441
H        104.05310      102.13320       66.51719
H        103.79818      105.01009       65.57061
H        102.07116      105.35489       67.28440
H        101.33140      104.63987       65.32372
H        102.80581      103.75900       69.01701
H        101.08153      103.51851       68.57701
H        102.31936      102.36243       67.97864
N        104.92056      106.01650       67.75669
C        106.03789      106.51809       68.55973
C        105.56471      107.35970       69.73958
O        106.39500      108.00542       70.36461
C        107.02797      107.30585       67.64467
C        106.40747      108.60532       67.06883
C        107.56118      106.37782       66.53120
C        107.40879      109.45326       66.28144
H        104.25537      106.69626       67.35769
H        106.63633      105.68281       68.98734
H        107.89930      107.59384       68.27513
H        106.04706      109.23440       67.91030
H        105.54261      108.37268       66.41322
H        106.74849      106.08544       65.83228
H        108.36656      106.86439       65.94683
H        107.99743      105.45620       66.97314
H        108.28561      109.70379       66.91611
H        107.75287      108.92883       65.36739
H        106.92119      110.39771       65.96191
N        104.25461      107.38792       70.11795
C        103.73284      108.26813       71.16019
C        103.35081      107.50534       72.42011
O        102.70010      108.08856       73.27506
C        102.54962      109.09753       70.59776
C        101.31344      108.25087       70.25058
O        102.98330      109.79519       69.45835
H        103.59060      106.75244       69.65675
H        104.50452      109.00495       71.47680
H        102.25600      109.82921       71.38723
H        102.34351      110.54016       69.31310
H        101.52649      107.51845       69.44670
H        100.94636      107.70815       71.14673
H        100.49705      108.91515       69.89821
N        103.78496      106.22722       72.63697
C        103.50465      105.43373       73.83446
C        102.03441      105.01456       73.85930
O        101.27116      105.44810       73.00682
C        103.99820      106.16390       75.12908
C        105.47671      106.58392       75.02641
O        103.81208      105.37568       76.27643
H        104.38303      105.78623       71.92884
H        104.08900      104.49570       73.74977
H        103.41220      107.08865       75.29076
H        104.49458      104.65681       76.26586
H        105.63787      107.28108       74.17845
H        105.78725      107.09953       75.96003
H        106.12517      105.69542       74.88220
N        101.57554      104.13983       74.79988
C        100.18597      103.69846       74.89832
C        100.04454      102.17289       74.90810
O         98.92880      101.70116       75.08075
C         99.53841      104.34779       76.14009
C        100.23175      104.02335       77.47146
C         99.53347      104.75877       78.62444
C        100.18741      104.50395       79.99193
N        101.55546      105.02383       80.06384
H        102.23312      103.78501       75.50433
H         99.59215      104.06640       74.03268
H         98.46907      104.04588       76.19327
H         99.56709      105.45094       75.99347
H        101.28274      104.36385       77.41725
H        100.21018      102.92734       77.65515
H         98.47701      104.41527       78.67457
H         99.53175      105.85381       78.42695
H        100.18260      103.41530       80.21900
H         99.57248      105.01919       80.76283
H        101.56865      106.04281       79.82799
H        101.91382      104.89978       81.03789
H        102.18963      104.50236       79.41934
N        101.10167      101.33460       74.69008
C        100.97539       99.87740       74.69430
C        100.67433       99.37952       76.09204
O        101.44975       99.64120       77.00105
C        102.27203       99.22346       74.16542
C        102.27649       97.68122       74.20579
C        101.13491       96.97985       73.49819
O        100.96707       97.05282       72.16074
O        100.40885       96.23700       74.13909
H        102.02288      101.73801       74.47480
H        100.16594       99.57993       73.99212
H        103.13852       99.57145       74.76853
H        102.44428       99.56798       73.13158
H        102.27024       97.36807       75.27262
H        103.23357       97.32298       73.76909
N         99.57932       98.60854       76.32675
C         99.30422       98.05078       77.63204
H         98.38094       97.43527       77.59368
H        100.14838       97.39905       77.94687
H         99.16780       98.86476       78.37418
H         98.93694       98.38345       75.55219
Ca       101.84128       98.67295       70.88546
O         98.69666      100.09460       71.69209
H         98.42795      100.98990       72.01801
H         99.47337      100.26885       71.10433
O        102.77758       99.15685       67.47754
H        102.24959       99.28792       66.65017
H        103.67531       99.51200       67.25786
O         99.94835      100.54525       68.32413
H        100.23509      100.85564       67.42884
H         99.46797      101.31911       68.71228
O         98.92907       97.73953       69.56340
H         97.96396       97.95643       69.51800
H         99.03518       96.95134       68.97375

Ca 1.0



