%chk=apoCaM-CA-Ng.loop4.water5.frame678.chk
%nprocshared=20
%mem=10GB
%nosave
#b3lyp/svp scf=(tight,noincore,xqc) Test 
#IOP(5/87=12) Density=Current Pop=(MK,readradii) iop(6/33=2) iop(6/42=6)

apoCaM-CA-Ng.loop4.water5.frame678 

   -3  1 
C        -27.02995       58.99337       98.78297
C        -28.32266       59.03574       99.54396
O        -29.18965       59.81665       99.17929
H        -26.32764       58.25022       99.21462
H        -27.23118       58.71759       97.72607
H        -26.54850       59.99347       98.81156
N        -28.53103       58.20672      100.60930
C        -29.76230       58.17853      101.39380
C        -30.93814       57.84303      100.50497
O        -31.89030       58.60859      100.42980
C        -29.94459       59.49702      102.18142
C        -28.83937       59.64662      103.18306
O        -27.97574       60.67253      103.11207
O        -28.70536       58.81529      104.06702
H        -27.78710       57.54326      100.87361
H        -29.69371       57.35474      102.13938
H        -30.90610       59.48204      102.73905
H        -29.96255       60.36896      101.49370
N        -30.92398       56.68334       99.78916
C        -32.00811       56.30764       98.88726
C        -33.10995       55.61255       99.68990
O        -32.83073       55.19596      100.80667
C        -31.44418       55.49028       97.66191
C        -30.97104       54.04237       97.97352
C        -30.29100       56.27574       97.00292
C        -32.11403       53.03851       98.17670
H        -30.10315       56.06580       99.87743
H        -32.41985       57.25037       98.46549
H        -32.20197       55.39715       96.86602
H        -30.26950       54.01935       98.83282
H        -30.42370       53.66063       97.08370
H        -29.94848       55.75701       96.08160
H        -30.63130       57.29204       96.71174
H        -29.41613       56.37181       97.67961
H        -31.69313       52.01759       98.28517
H        -32.71273       53.23018       99.08128
H        -32.78632       53.04339       97.29082
N        -34.38199       55.41132       99.22967
C        -34.91813       56.00108       98.00936
C        -35.14786       57.50140       98.16319
O        -35.31303       58.17070       97.15312
C        -36.12362       55.20232       97.47554
C        -37.32740       55.13239       98.37595
O        -37.36691       55.78133       99.55532
O        -38.28612       54.45990       98.03166
H        -35.01899       54.86571       99.83010
H        -34.17011       55.88610       97.21589
H        -35.77126       54.16006       97.30146
H        -36.43449       55.62243       96.49508
N        -35.07633       58.10938       99.38573
C        -34.96873       59.54562       99.56287
C        -36.12728       60.37462       99.07226
O        -37.13311       59.86211       98.60186
H        -34.97725       57.54119      100.23907
H        -34.05734       59.88539       99.02603
H        -34.82825       59.76802      100.64408
N        -36.00067       61.72695       99.16771
C        -36.99963       62.69923       98.74041
C        -37.30407       62.68639       97.24257
O        -38.20699       63.41814       96.86016
C        -36.59958       64.12589       99.23155
C        -35.16888       64.54356       98.96386
O        -34.34764       64.80131      100.00035
O        -34.74017       64.66065       97.83270
H        -35.13582       62.07682       99.60750
H        -37.96104       62.45463       99.24374
H        -36.71849       64.13526      100.33571
H        -37.29649       64.88849       98.82038
N        -36.65227       61.90184       96.32823
C        -36.99915       61.93964       94.90823
C        -36.68334       63.27954       94.25856
O        -37.05789       63.48892       93.11438
H        -35.90342       61.26108       96.62407
H        -38.08250       61.71590       94.80439
H        -36.43432       61.15634       94.35640
N        -35.93807       64.20687       94.92025
C        -35.50024       65.49491       94.40925
C        -34.63535       65.33335       93.17505
O        -34.61146       66.20812       92.32087
C        -36.65391       66.51356       94.30795
C        -37.30212       66.71104       95.69366
C        -38.35197       67.78878       95.69390
N        -39.62832       67.51279       96.05106
O        -38.04112       68.93216       95.39519
H        -35.57508       63.96236       95.83931
H        -34.79992       65.91369       95.16832
H        -37.41360       66.17954       93.56921
H        -36.23505       67.48812       93.97319
H        -36.52289       67.00061       96.43239
H        -37.74774       65.75322       96.02730
H        -39.91037       66.55857       96.31930
H        -40.33824       68.25985       96.06913
N        -33.81959       64.24361       93.08644
C        -32.78974       64.05285       92.07390
C        -31.41612       63.89133       92.71836
O        -30.43107       64.07283       92.01499
C        -33.10645       62.83873       91.16513
C        -33.24332       61.52749       91.96266
C        -34.37965       63.09453       90.35049
H        -33.92891       63.51276       93.79746
H        -32.73110       64.96277       91.43485
H        -32.26878       62.71836       90.44228
H        -33.41570       60.67688       91.27143
H        -32.31810       61.31721       92.53933
H        -34.10059       61.57001       92.66739
H        -35.25830       63.22678       91.01578
H        -34.25739       64.01046       89.73345
H        -34.57399       62.24107       89.66742
N        -31.26422       63.54033       94.03333
C        -29.98208       63.44934       94.70784
C        -29.98667       64.44859       95.85629
O        -31.01891       65.05988       96.11357
C        -29.78690       61.99977       95.20839
C        -28.37721       61.69879       95.64379
N        -27.36782       61.70554       94.74094
O        -28.14704       61.41794       96.80967
H        -32.07816       63.33162       94.62224
H        -29.16808       63.71445       93.99904
H        -30.02087       61.28579       94.38917
H        -30.50576       61.80784       96.03681
H        -27.55209       61.91139       93.74773
H        -26.40385       61.48040       95.02743
N        -28.86009       64.71389       96.56445
C        -28.84559       65.72884       97.61641
C        -27.42667       66.20817       97.88903
O        -26.48199       65.61899       97.38295
C        -29.51555       65.16078       98.89578
C        -29.70936       66.20287       99.96772
C        -28.93052       66.17701      101.13671
C        -30.66175       67.22253       99.79777
C        -29.08566       67.16940      102.10863
C        -30.82631       68.20473      100.77913
C        -30.03444       68.18763      101.93234
O        -30.19074       69.15402      102.85944
H        -27.99093       64.24580       96.27177
H        -29.39613       66.61737       97.23145
H        -28.87098       64.33296       99.26549
H        -30.51147       64.72007       98.67236
H        -28.18655       65.40461      101.28475
H        -31.27799       67.25434       98.90737
H        -28.46435       67.14827      102.99493
H        -31.56496       68.98444      100.63939
H        -29.65164       69.18858      103.66252
N        -27.20506       67.33052       98.62777
C        -25.87847       67.86951       98.86313
C        -25.64439       68.03739      100.35657
O        -25.93248       69.11428      100.86306
C        -25.74884       69.21023       98.10528
C        -24.33890       69.81127       98.22703
C        -24.23568       71.09219       97.45335
O        -25.02098       72.13942       97.77109
O        -23.43152       71.19552       96.54108
H        -28.00702       67.86822       98.98801
H        -25.09814       67.22379       98.42734
H        -26.50722       69.93383       98.48014
H        -25.95820       69.02461       97.02793
H        -23.59554       69.07898       97.84138
H        -24.09647       70.02775       99.28829
N        -25.11557       67.07398      101.16821
C        -24.76340       65.69577      100.81401
C        -23.70164       65.62172       99.73524
O        -22.66033       66.25127       99.86556
C        -24.19234       64.95684      102.04685
C        -25.19108       64.80888      103.20497
C        -24.51850       64.16628      104.38346
O        -24.97175       63.00002      104.86930
O        -23.56218       64.70682      104.91636
H        -24.96819       67.36181      102.14734
H        -25.67601       65.15364      100.48035
H        -23.29180       65.50771      102.40070
H        -23.87557       63.93314      101.74287
H        -26.05443       64.19262      102.87085
H        -25.57659       65.79187      103.54023
N        -23.88652       64.81118       98.65646
C        -22.89313       64.66211       97.61708
H        -21.94381       64.28371       98.05262
H        -23.24828       63.93073       96.85924
H        -22.71535       65.63722       97.11781
H        -24.75052       64.25398       98.58140
Ca       -26.30247       60.60188      104.61688
O        -28.39199       62.53678      105.74011
H        -28.60149       63.14583      104.98822
H        -28.01286       63.12658      106.43896
O        -25.88863       61.64319      107.60952
H        -25.33174       61.19008      108.29102
H        -25.71726       62.60841      107.74915
O        -24.29632       60.97996      102.43360
H        -23.41704       61.43479      102.43092
H        -24.54716       60.91135      101.47839
O        -23.79360       59.72713      106.15662
H        -23.25113       60.41115      105.68942
H        -23.41717       58.86189      105.85699
O        -26.84866       58.36019      106.64800
H        -26.05218       58.04373      107.14357
H        -27.29211       57.53236      106.33438

Ca 1.0



