%chk=apoCaM-CA-Ng.loop2.water2.frame890.chk
%nprocshared=20
%mem=10GB
%nosave
#b3lyp/svp scf=(tight,noincore,xqc) Test 
#IOP(5/87=12) Density=Current Pop=(MK,readradii) iop(6/33=2) iop(6/42=6)

apoCaM-CA-Ng.loop2.water2.frame890 

   -2  1 
C          9.66872       -4.23520        8.00064
C          9.98964       -2.95905        7.28200
O          9.11556       -2.11032        7.17595
H          8.83196       -4.75369        7.48973
H         10.54647       -4.91392        8.03530
H          9.36899       -3.99870        9.04413
N         11.23913       -2.73826        6.78104
C         11.62600       -1.48115        6.14935
C         11.40944       -0.35646        7.14310
O         10.66917        0.57001        6.84541
C         13.09768       -1.55075        5.68235
C         13.53407       -0.29557        4.97897
O         14.56581        0.42349        5.46080
O         12.96796        0.06889        3.96057
H         11.94908       -3.47990        6.88658
H         10.99042       -1.31579        5.24960
H         13.21536       -2.40085        4.97528
H         13.76523       -1.73637        6.55146
N         11.98906       -0.42066        8.37473
C         11.74390        0.54312        9.44152
C         12.61260        0.17919       10.64093
O         12.43193       -0.91263       11.16388
C         10.26772        0.51566        9.87351
H         12.62181       -1.21393        8.56412
H         11.97238        1.55409        9.05824
H         10.09864        1.23677       10.70081
H          9.59201        0.79460        9.04094
H          9.98306       -0.50169       10.22076
N         13.60737        0.97322       11.13376
C         13.97024        2.28895       10.61269
C         15.42751        2.63067       10.90626
O         16.10785        1.88800       11.59945
C         12.98639        3.36914       11.12416
C         12.97029        3.48271       12.62656
O         12.62740        2.53402       13.31415
O         13.29809        4.64590       13.21975
H         14.16352        0.57658       11.90508
H         13.94773        2.24594        9.50365
H         11.95463        3.13070       10.79154
H         13.25538        4.35368       10.68617
N         16.00097        3.70509       10.29738
C         17.42465        3.98982       10.36265
C         17.67745        5.43803       10.67768
O         18.13093        6.13958        9.78400
H         15.42573        4.28595        9.66706
H         17.82771        3.79444        9.34382
H         17.97589        3.32910       11.06209
N         17.41671        6.01486       11.88196
C         16.94438        5.34315       13.09117
C         18.05404        4.46940       13.67750
O         19.16058        4.96827       13.83334
C         16.56332        6.44617       14.10840
C         15.85940        5.98547       15.35341
N         15.56398        6.89315       16.31122
O         15.53616        4.81830       15.50023
H         17.57972        7.03428       11.93501
H         16.02240        4.76485       12.86738
H         15.87002        7.16283       13.61644
H         17.48347        6.99815       14.40075
H         15.81993        7.88325       16.19088
H         15.09168        6.61692       17.17936
N         17.82421        3.18206       14.07415
C         18.85947        2.31956       14.64338
C         18.65419        2.00539       16.11979
O         19.47504        1.28480       16.66947
H         16.87269        2.79993       13.99101
H         19.86179        2.79257       14.56074
H         18.89344        1.37479       14.05962
N         17.62530        2.54013       16.83868
C         17.43307        2.36318       18.27925
C         16.08077        1.70795       18.55780
O         15.37795        1.38005       17.61300
C         17.56930        3.74452       18.97374
C         18.97800        4.32181       18.78428
O         16.63810        4.65794       18.45581
H         16.95324        3.14447       16.35951
H         18.21032        1.69228       18.70788
H         17.42603        3.64475       20.07320
H         15.76120        4.43509       18.86064
H         19.73752        3.63523       19.21638
H         19.20737        4.47754       17.70834
H         19.05964        5.30195       19.30051
N         15.65914        1.46247       19.83714
C         14.41383        0.75567       20.15290
C         13.47497        1.73474       20.85613
O         13.23828        1.64720       22.05275
C         14.71386       -0.56352       20.93947
C         13.51872       -1.56400       20.92733
C         15.91090       -1.30620       20.30502
C         12.23124       -1.09212       21.59102
H         16.25307        1.75889       20.62649
H         13.91200        0.42941       19.21615
H         15.00639       -0.31984       21.98466
H         13.82948       -2.48920       21.45982
H         13.27956       -1.84117       19.87569
H         16.12478       -2.24573       20.85800
H         15.70171       -1.55658       19.24226
H         16.83607       -0.69420       20.34999
H         11.80109       -0.23820       21.04296
H         11.47900       -1.90799       21.55234
H         12.41471       -0.82483       22.65227
N         12.92335        2.73039       20.11366
C         12.08016        3.81654       20.60885
C         10.74672        3.42672       21.26315
O         10.18395        4.30414       21.89890
C         11.72986        4.74112       19.41785
C         12.94224        5.36398       18.78520
O         13.57085        6.20933       19.40139
O         13.34289        5.01950       17.53986
H         13.18465        2.74127       19.11772
H         12.66781        4.37693       21.37090
H         11.05155        5.56590       19.72789
H         11.19182        4.13068       18.65864
N         10.11355        2.22458       21.07470
C          8.76343        1.97278       21.60511
C          8.15384        0.69064       21.02258
O          8.76515       -0.35437       21.16426
C          8.74703        1.91231       23.15930
C          7.34775        1.68541       23.71104
C          6.81024        0.38546       23.78175
C          6.56266        2.76733       24.15234
C          5.51841        0.17431       24.27335
C          5.26658        2.55116       24.63813
C          4.74551        1.25625       24.69799
H         10.55085        1.52301       20.47129
H          8.14050        2.83540       21.30885
H          9.12527        2.87418       23.56169
H          9.42896        1.12563       23.54819
H          7.39141       -0.46822       23.46031
H          6.94501        3.77895       24.10772
H          5.11567       -0.82946       24.32361
H          4.66277        3.38762       24.96671
H          3.74346        1.09032       25.07412
N          6.90556        0.67942       20.42967
C          6.19894       -0.54058       20.02639
C          6.84190       -1.39691       18.94913
O          6.28895       -2.44714       18.64553
C          4.86315       -0.01664       19.47952
C          4.63174        1.20564       20.32805
C          6.02157        1.82788       20.34668
H          6.04911       -1.14340       20.94960
H          5.01018        0.35402       18.43688
H          4.03895       -0.76143       19.47680
H          3.82840        1.88679       19.97517
H          4.38440        0.85808       21.35762
H          6.24261        2.38073       19.40643
H          6.04671        2.50222       21.22735
N          7.96071       -1.00638       18.28227
C          8.53766       -1.76939       17.17194
C          9.07580       -3.13660       17.58066
O          9.43827       -3.89645       16.69408
C          9.65061       -0.92767       16.51217
C         10.85669       -0.76542       17.45387
C         11.50345        0.56667       17.27374
O         11.44801        1.35319       18.19789
O         12.09817        0.96356       16.13741
H          8.36758       -0.08926       18.51741
H          7.72795       -1.91393       16.42189
H          9.18559        0.06212       16.29899
H          9.99591       -1.34173       15.53986
H         11.56720       -1.61329       17.34824
H         10.51210       -0.78266       18.51146
N          9.19139       -3.50628       18.89109
C          9.71287       -4.78983       19.31488
H         10.62132       -4.62921       19.93277
H          8.94841       -5.31050       19.92844
H          9.98126       -5.44473       18.45992
H          8.92431       -2.85390       19.64025
Ca        12.88459        3.06036       16.48940
O         14.92476        1.01995       14.87199
H         15.26951        0.09589       14.95284
H         15.08800        1.26272       13.92885
O         10.14515        3.60080       15.51441
H         10.18998        3.92071       14.57852
H         10.19692        4.42449       16.06175

Ca 1.0



