%chk=apoCaM-CA-Ng.loop2.water6.frame1242.chk
%nprocshared=20
%mem=10GB
%nosave
#b3lyp/svp scf=(tight,noincore,xqc) Test 
#IOP(5/87=12) Density=Current Pop=(MK,readradii) iop(6/33=2) iop(6/42=6)

apoCaM-CA-Ng.loop2.water6.frame1242 

   -2  1 
C         47.32430       29.18631       31.22556
C         47.55150       27.79430       30.68934
O         46.98060       27.49273       29.65173
H         46.23845       29.32581       31.41256
H         47.84995       29.40394       32.17256
H         47.65573       29.92958       30.47174
N         48.32449       26.85411       31.30987
C         49.06436       27.06926       32.55255
C         49.37047       25.73027       33.24776
O         48.78556       24.72041       32.87946
C         50.30730       27.97449       32.30509
C         51.42299       27.24052       31.63384
O         51.27419       26.69828       30.41465
O         52.44815       27.02129       32.25958
H         48.35926       25.92136       30.86879
H         48.40454       27.59610       33.27324
H         50.67944       28.32880       33.29005
H         50.05144       28.88035       31.72035
N         50.23520       25.66207       34.30300
C         50.48326       24.47839       35.13016
C         51.08176       23.24947       34.43296
O         51.36994       22.30474       35.15569
C         49.19903       24.09022       35.87880
H         50.72067       26.52192       34.59435
H         51.22441       24.77887       35.90519
H         48.41027       23.74588       35.17886
H         49.40125       23.27338       36.60422
H         48.81587       24.96437       36.44742
N         51.29221       23.14996       33.08343
C         51.85454       21.94634       32.45078
C         53.13386       22.24061       31.59360
O         53.59905       23.51831       31.90004
C         50.76669       21.16436       31.67184
C         49.97581       21.89736       30.61259
O         49.10970       21.29412       30.00009
O         50.16904       23.19786       30.34060
H         51.03956       23.93698       32.48188
H         52.17288       21.23955       33.24803
H         50.01983       20.80617       32.41353
H         51.23961       20.27290       31.20660
N         54.17633       21.25357       31.91830
C         55.49228       21.47489       31.29758
C         55.67947       20.85205       29.92806
O         56.80089       20.90009       29.44224
H         53.85572       20.26093       31.83867
H         56.23906       20.99292       31.96399
H         55.75030       22.55481       31.26312
N         54.67249       20.22771       29.25090
C         54.89286       19.53941       27.98119
C         55.36822       20.50799       26.91936
O         54.64199       21.43899       26.59804
C         53.59998       18.85263       27.49294
C         53.07144       17.86509       28.50300
N         51.84461       18.03122       29.05160
O         53.75776       16.90879       28.83104
H         53.72884       20.20562       29.65888
H         55.66119       18.74972       28.14050
H         53.80219       18.31319       26.54192
H         52.82929       19.62674       27.28766
H         51.25174       18.83325       28.79130
H         51.48560       17.35831       29.74451
N         56.58101       20.34433       26.31583
C         57.04859       21.24241       25.27346
C         57.25918       22.65463       25.78711
O         57.13781       22.87739       26.98268
H         57.17801       19.54505       26.57702
H         56.28860       21.24321       24.46305
H         58.01117       20.87183       24.85882
N         57.56320       23.69522       24.96122
C         57.72827       23.59495       23.51293
C         59.11947       24.03329       23.06631
O         59.40198       23.92812       21.88067
C         56.63722       24.44249       22.81780
C         55.23286       23.92632       23.14599
O         56.73776       25.78527       23.22842
H         57.64805       24.63062       25.39091
H         57.61799       22.54671       23.17059
H         56.76271       24.35464       21.71147
H         56.94297       26.33350       22.42734
H         55.12116       22.87365       22.81018
H         55.03950       23.97435       24.23727
H         54.47009       24.54529       22.62855
N         60.03212       24.54622       23.94365
C         61.37221       24.99034       23.56927
C         62.43775       24.30771       24.43244
O         62.07816       23.65421       25.40193
C         61.45191       26.55284       23.65199
C         60.76688       27.19037       24.89615
C         60.81431       27.15913       22.39023
C         61.31494       26.74362       26.25295
H         59.77042       24.65877       24.92888
H         61.58738       24.66532       22.52889
H         62.51410       26.87263       23.63604
H         59.67307       26.99188       24.87619
H         60.88675       28.29314       24.83032
H         59.73722       26.89838       22.32040
H         60.91579       28.26559       22.39721
H         61.33227       26.78461       21.48053
H         62.40639       26.91370       26.32818
H         60.80563       27.32063       27.05338
H         61.10885       25.67683       26.44557
N         63.77820       24.34629       24.14354
C         64.36653       24.94037       22.94189
C         65.44052       25.97192       23.24478
O         65.90863       26.06734       24.37129
C         64.95005       23.81733       22.04639
C         66.09738       23.02540       22.64162
O         66.60343       23.30568       23.85870
O         66.58705       22.11281       21.99631
H         64.40766       23.84538       24.78829
H         63.59422       25.44754       22.33952
H         65.30758       24.25751       21.09093
H         64.12962       23.10678       21.80553
N         65.90030       26.76308       22.23262
C         67.08811       27.60568       22.33423
C         67.19174       28.51984       21.10971
O         67.11093       27.99275       20.00633
C         68.33105       26.67314       22.32678
C         69.63249       27.44009       22.35512
C         70.39815       27.57863       21.18240
C         70.08386       28.03645       23.54295
C         71.58401       28.31783       21.19653
C         71.27687       28.76716       23.55477
C         72.02319       28.91202       22.38174
H         65.41734       26.70265       21.32235
H         67.05314       28.20752       23.26555
H         68.28407       26.07309       21.38940
H         68.31739       25.94231       23.16322
H         70.06694       27.13476       20.25152
H         69.51008       27.93705       24.45563
H         72.15890       28.43507       20.28663
H         71.62037       29.22629       24.47225
H         72.94102       29.48555       22.39014
N         67.47360       29.86386       21.18583
C         67.80274       30.59683       22.40690
C         66.62997       31.05247       23.24790
O         66.87583       31.67326       24.27378
C         68.52575       31.85588       21.89213
C         69.08210       31.39590       20.55931
C         67.88746       30.62300       20.02370
H         68.51702       29.99224       22.99166
H         67.77426       32.64373       21.64357
H         69.25649       32.29389       22.60518
H         69.43071       32.21872       19.90034
H         69.92017       30.68732       20.74304
H         67.07278       31.33238       19.75218
H         68.15202       30.01026       19.13527
N         65.34104       30.88611       22.83699
C         64.21108       31.52801       23.50663
C         63.54635       32.50761       22.54084
O         63.86768       32.47423       21.36027
C         63.21443       30.45086       23.97943
C         63.82010       29.50624       25.03304
C         64.05997       30.13080       26.38492
O         64.55101       29.36908       27.38017
O         63.78670       31.29914       26.60900
H         65.14889       30.35378       21.97489
H         64.57394       32.12307       24.36774
H         62.91759       29.84802       23.09268
H         62.28559       30.89577       24.39412
H         64.76345       29.06298       24.65111
H         63.11035       28.68348       25.19019
N         62.63463       33.44820       22.92804
C         62.20507       33.70713       24.28774
H         61.10564       33.58072       24.35836
H         62.68357       33.05357       25.03543
H         62.46187       34.75508       24.55197
H         62.23800       34.06450       22.20150
Ca        52.34420       24.75756       30.49168
O         53.39212       27.15610       27.95612
H         53.67133       27.86015       28.59351
H         54.04869       27.21605       27.21732
O         50.37166       25.68221       27.55375
H         49.90850       26.45287       27.96834
H         50.70601       26.03104       26.68942
O         55.24132       24.31979       28.83441
H         55.10392       23.35846       28.64749
H         56.13655       24.36344       29.25509
O         55.10843       26.54219       30.85805
H         55.66695       26.81385       30.08726
H         54.88350       27.39376       31.30900
O         53.05310       24.47450       26.41634
H         52.95052       23.70642       25.80028
H         53.96291       24.82021       26.23671
O         52.09820       21.97462       28.53325
H         52.86288       22.48809       28.17650
H         51.49238       21.85038       27.76096

Ca 1.0



