%chk=apoCaM-CA-Ng.loop2.water4.frame1488.chk
%nprocshared=20
%mem=10GB
%nosave
#b3lyp/svp scf=(tight,noincore,xqc) Test 
#IOP(5/87=12) Density=Current Pop=(MK,readradii) iop(6/33=2) iop(6/42=6)

apoCaM-CA-Ng.loop2.water4.frame1488 

   -2  1 
C         15.83741       92.39505       39.03765
C         17.12467       93.06830       38.63957
O         17.80305       93.55263       39.53371
H         15.24459       92.00934       38.19004
H         16.06282       91.54832       39.71904
H         15.20263       93.12924       39.57628
N         17.56361       93.17853       37.35086
C         16.92072       92.56992       36.18481
C         17.32056       93.19533       34.83329
O         16.84662       92.69230       33.82297
C         17.14784       91.03694       36.21075
C         18.59161       90.67739       36.40493
O         18.96734       89.93722       37.46546
O         19.43355       91.07579       35.62609
H         18.46395       93.65668       37.22761
H         15.82772       92.76361       36.21309
H         16.75599       90.57533       35.27871
H         16.58643       90.58508       37.05256
N         18.07044       94.33535       34.71467
C         18.27067       95.01834       33.43492
C         19.15493       94.27180       32.44279
O         19.28980       94.76271       31.32976
C         18.89069       96.40411       33.68501
H         18.41580       94.81531       35.55324
H         17.27156       95.17777       32.97224
H         19.89647       96.30007       34.14883
H         18.99240       96.97288       32.73621
H         18.24416       96.99337       34.36990
N         19.84254       93.14118       32.77498
C         20.82193       92.52146       31.88516
C         20.55613       91.03562       31.67888
O         20.41662       90.62215       30.53574
C         22.25470       92.81972       32.38961
C         22.57909       92.29488       33.75979
O         21.86247       92.67311       34.83321
O         23.51540       91.53224       33.90829
H         19.74203       92.76270       33.72258
H         20.78717       92.99744       30.87931
H         22.39311       93.92212       32.41246
H         22.98186       92.40554       31.65519
N         20.48968       90.16414       32.72757
C         20.34076       88.72531       32.55942
C         21.62252       88.06798       32.07058
O         21.60660       86.87393       31.81087
H         20.56554       90.52346       33.68146
H         19.49327       88.52355       31.86834
H         20.09140       88.26038       33.53645
N         22.77363       88.78706       31.93990
C         24.03879       88.28440       31.42724
C         25.17079       88.47416       32.44781
O         26.31494       88.20144       32.11110
C         24.31070       89.10594       30.14579
C         25.60825       88.78204       29.45687
N         26.55287       89.74001       29.29902
O         25.80909       87.65248       29.03764
H         22.77012       89.78432       32.18349
H         23.97442       87.20543       31.16466
H         24.30057       90.18649       30.41398
H         23.48010       88.93334       29.42695
H         26.39877       90.69797       29.64882
H         27.44381       89.52715       28.82855
N         24.94447       88.96156       33.70097
C         26.04082       89.33803       34.58821
C         25.55311       89.92613       35.90091
O         24.36476       89.86842       36.17597
H         23.97615       89.12310       34.00144
H         26.62736       90.11932       34.05956
H         26.69584       88.46495       34.79972
N         26.38234       90.53092       36.79594
C         27.81820       90.73481       36.64470
C         28.52756       89.98373       37.75112
O         29.39590       89.17957       37.44334
C         28.12921       92.25249       36.67072
C         29.63080       92.53903       36.55300
O         27.48430       92.88152       35.59193
H         25.94436       90.90028       37.65393
H         28.18838       90.34254       35.67344
H         27.78633       92.70225       37.63221
H         26.55007       93.06357       35.87216
H         30.18702       92.10312       37.40861
H         30.03584       92.11998       35.60709
H         29.80470       93.63660       36.55616
N         28.17496       90.16157       39.05903
C         28.76076       89.40830       40.15907
C         27.66936       88.52363       40.77122
O         26.68139       89.08439       41.22669
C         29.30466       90.37856       41.25423
C         30.23177       91.49778       40.71657
C         29.98861       89.58931       42.38540
C         31.53644       91.01898       40.08258
H         27.42580       90.83042       39.29084
H         29.60548       88.80155       39.78743
H         28.43454       90.91412       41.69815
H         30.48725       92.17820       41.55943
H         29.67597       92.10374       39.96931
H         29.28367       88.86058       42.82913
H         30.86118       89.01814       42.00728
H         30.32189       90.27591       43.19177
H         31.33543       90.36868       39.20838
H         32.11333       91.90342       39.73806
H         32.16122       90.47516       40.81969
N         27.74014       87.16047       40.87958
C         28.80425       86.31480       40.34942
C         28.85296       84.97915       41.08130
O         27.82492       84.34089       41.26110
C         28.58258       86.06956       38.84651
C         29.72121       85.28428       38.25092
O         29.51843       84.19294       37.74349
O         30.97321       85.78108       38.28268
H         26.95881       86.69559       41.36889
H         29.78581       86.80652       40.50750
H         28.51169       87.03212       38.30895
H         27.62273       85.52693       38.69657
N         30.05847       84.47675       41.46960
C         30.24582       83.21224       42.16673
C         31.03231       83.47617       43.43778
O         32.06538       84.12682       43.35264
C         30.97698       82.20395       41.24812
C         31.26743       80.90155       41.97136
C         30.46360       79.76538       41.77014
C         32.34226       80.82170       42.87802
C         30.72014       78.58546       42.48037
C         32.59704       79.64260       43.57951
C         31.78385       78.52586       43.38539
H         30.90868       85.00990       41.22959
H         29.27065       82.74250       42.40083
H         31.92371       82.61308       40.83393
H         30.29836       82.01268       40.38658
H         29.62733       79.79661       41.08350
H         32.98728       81.67362       43.04496
H         30.09086       77.71713       42.33522
H         33.42392       79.59866       44.27687
H         31.97992       77.61516       43.93655
N         30.66846       82.95471       44.64926
C         29.53869       82.07273       44.89203
C         28.22547       82.83085       44.86455
O         27.27304       82.32333       44.28926
C         29.88062       81.44237       46.24717
C         30.62295       82.54217       46.96886
C         31.47199       83.13595       45.84496
H         29.48406       81.22094       44.17777
H         29.02801       80.97896       46.78725
H         30.63711       80.64472       46.05667
H         29.86997       83.28168       47.30308
H         31.20116       82.22806       47.86277
H         31.68952       84.20377       46.06452
H         32.42052       82.57190       45.70687
N         28.11077       84.07363       45.40971
C         26.86440       84.82367       45.38968
C         25.88363       84.16205       46.35520
O         26.18934       84.15588       47.54002
C         27.11070       86.28760       45.82334
C         28.06343       87.02504       44.86387
C         28.34934       88.41318       45.35673
O         29.61285       88.77234       45.65657
O         27.44607       89.22460       45.47871
H         28.94414       84.51643       45.81566
H         26.50197       84.87213       44.34839
H         27.54567       86.29958       46.84787
H         26.14014       86.83118       45.84632
H         27.61486       87.07621       43.84874
H         29.03007       86.48556       44.78257
N         24.70610       83.56647       45.99734
C         24.18092       83.40032       44.65654
H         23.19125       83.89662       44.58683
H         24.82373       83.79758       43.85748
H         24.04573       82.31551       44.45961
H         24.12820       83.16590       46.75316
Ca        22.19795       91.64804       36.81362
O         21.04104       94.07644       37.81532
H         20.78008       95.02532       37.91598
H         20.68759       93.62905       38.62508
O         21.88753       89.91991       39.33217
H         22.84299       90.07466       39.12234
H         21.64289       90.66455       39.93735
O         21.68262       88.63961       35.72642
H         22.39732       87.95660       35.77856
H         20.85149       88.14428       35.93512
O         24.41889       93.42882       37.77284
H         23.82960       94.18459       38.02102
H         24.20850       92.72321       38.43510

Ca 1.0



