%chk=apoCaM-CA-Ng.loop1.water4.frame310.chk
%nprocshared=20
%mem=10GB
%nosave
#b3lyp/svp scf=(tight,noincore,xqc) Test 
#IOP(5/87=12) Density=Current Pop=(MK,readradii) iop(6/33=2) iop(6/42=6)

apoCaM-CA-Ng.loop1.water4.frame310 

   0  1 
C         44.40720       82.93167       19.55076
C         45.28227       83.79500       20.40628
O         45.80516       83.31188       21.40072
H         43.39972       83.38574       19.45300
H         44.86736       82.83604       18.54465
H         44.30573       81.91691       19.99201
N         45.48121       85.10153       20.07583
C         46.37894       85.97935       20.81105
C         45.57527       87.03585       21.55683
O         45.81383       88.21546       21.34835
C         47.39512       86.61825       19.82594
C         48.23993       85.61318       19.09102
O         47.72416       84.80257       18.33863
O         49.57982       85.63552       19.21992
H         44.98198       85.48959       19.25989
H         46.95175       85.41339       21.57273
H         48.06904       87.29317       20.38473
H         46.85388       87.23443       19.07482
N         44.59917       86.69055       22.45542
C         43.81293       87.69745       23.17442
C         43.33314       87.21356       24.54239
O         42.70122       86.16658       24.57725
C         42.57008       88.13122       22.36564
C         42.93372       88.78327       21.02768
C         41.72411       89.44249       20.36599
C         42.13711       90.07823       19.03212
N         41.02132       90.80138       18.42706
H         44.37941       85.69270       22.59350
H         44.43457       88.58694       23.30069
H         42.03046       88.88823       22.97776
H         41.88447       87.27179       22.19323
H         43.36071       88.01618       20.34630
H         43.68526       89.58265       21.20946
H         41.33505       90.23376       21.04483
H         40.92269       88.69200       20.19205
H         42.48577       89.28073       18.33828
H         42.97819       90.78871       19.19866
H         40.72921       91.58841       19.05139
H         41.33019       91.19628       17.50958
H         40.21445       90.15580       18.26832
N         43.48190       87.92172       25.71513
C         44.18716       89.19476       25.91193
C         43.63514       90.31293       25.02709
O         44.31972       90.75296       24.11567
C         45.71587       88.98126       25.83810
C         46.20077       88.13262       26.99354
O         45.35105       87.76852       27.98032
O         47.36593       87.77498       27.03787
H         43.04076       87.51918       26.55736
H         44.03251       89.54609       26.95226
H         46.24327       89.95011       25.91085
H         45.99419       88.50400       24.87883
N         42.42589       90.89838       25.26558
C         41.64068       90.61282       26.45616
C         40.44313       91.53224       26.63355
O         40.10754       92.27694       25.72389
H         42.12408       91.64593       24.62265
H         42.30019       90.82379       27.32307
H         41.31867       89.54962       26.47702
N         39.77540       91.60952       27.82309
C         40.14205       90.84000       29.00956
C         41.04218       91.66049       29.92001
O         41.22191       92.84979       29.69289
C         38.87930       90.30062       29.71682
C         37.95991       91.39324       30.20113
O         38.37941       92.27804       31.12591
O         36.82208       91.47409       29.76587
H         39.04239       92.33052       27.91541
H         40.73871       89.95329       28.71580
H         39.16643       89.67164       30.58579
H         38.32895       89.65294       28.99854
N         41.68354       91.05749       30.95985
C         42.56445       91.75676       31.88292
C         43.86304       92.29358       31.28814
O         44.61651       92.87582       32.05474
H         41.51578       90.05383       31.12955
H         42.85372       91.04839       32.69035
H         41.99983       92.59049       32.35344
N         44.21551       92.14389       29.97371
C         45.47664       92.64311       29.41626
C         45.19562       93.69265       28.36147
O         44.46258       93.42144       27.41970
C         46.29864       91.49445       28.80236
C         46.70811       90.47915       29.86691
O         47.45974       92.02147       28.21153
H         43.58189       91.65116       29.33029
H         46.10619       93.10703       30.20729
H         45.67011       90.99711       28.02988
H         47.74521       91.37960       27.51064
H         47.33449       90.96872       30.64397
H         45.80818       90.04698       30.34282
H         47.29597       89.66058       29.40191
N         45.76128       94.93005       28.46799
C         45.47196       96.01338       27.53277
C         45.95442       95.72199       26.11302
O         45.50815       96.42476       25.21512
C         45.98830       97.38921       28.07235
C         47.54098       97.48408       28.16983
C         45.35319       97.70507       29.44133
C         48.13093       98.39211       27.09160
H         46.37332       95.11544       29.27520
H         44.36217       96.09157       27.48487
H         45.61461       98.19483       27.40012
H         48.00876       96.47668       28.13071
H         47.84889       97.94185       29.13603
H         45.65032       98.72468       29.76894
H         44.24575       97.67948       29.36843
H         45.67564       96.99249       30.22767
H         47.73143       99.42328       27.21324
H         49.23575       98.43747       27.19954
H         47.87401       98.02957       26.07988
N         46.86346       94.73728       25.82183
C         47.28980       94.43124       24.45291
C         47.24103       92.93670       24.14870
O         47.01834       92.13573       25.04442
C         48.71025       94.99895       24.17957
C         49.78995       94.36855       25.06560
O         48.72895       96.38672       24.38374
H         47.30291       94.21651       26.59496
H         46.59842       94.92140       23.73218
H         48.99535       94.79428       23.12274
H         48.05904       96.78527       23.76884
H         50.78265       94.78647       24.79375
H         49.60132       94.58687       26.13692
H         49.83111       93.27036       24.92127
N         47.45112       92.50176       22.87308
C         47.48220       91.09159       22.46767
C         48.67978       90.34398       23.06224
O         49.51348       90.95777       23.71147
C         47.48585       90.97907       20.91013
C         48.70682       91.62159       20.23026
O         46.31070       91.56425       20.40820
H         47.55786       93.22737       22.15017
H         46.55506       90.59876       22.82910
H         47.49711       89.90190       20.63811
H         46.09536       91.10537       19.55351
H         49.64880       91.16422       20.59618
H         48.64544       91.45698       19.13316
H         48.75026       92.71629       20.39684
N         48.84057       89.00531       22.82078
C         50.02580       88.23722       23.20378
C         49.68645       86.98282       24.02697
O         50.61144       86.35648       24.52538
C         50.72713       87.83857       21.88328
C         52.17520       87.33496       21.98118
C         52.66602       86.95363       20.57163
C         54.15436       86.59168       20.53848
N         54.55701       86.19610       19.18682
H         48.13042       88.52932       22.25631
H         50.70561       88.88693       23.79667
H         50.76106       88.74042       21.23083
H         50.10266       87.07383       21.37810
H         52.25761       86.44697       22.64066
H         52.80489       88.15320       22.39401
H         52.50665       87.80689       19.87564
H         52.07013       86.08732       20.20955
H         54.35950       85.75556       21.24187
H         54.75035       87.47680       20.85451
H         54.35612       86.96506       18.50614
H         55.58301       85.99631       19.17526
H         54.04177       85.33242       18.89826
N         48.40444       86.51655       24.16644
C         48.05787       85.27277       24.86225
C         48.79099       84.09101       24.25175
O         48.69601       83.88812       23.04865
C         46.53262       84.98786       24.74585
C         46.08479       83.68712       25.45742
C         46.15960       83.85706       26.93839
O         46.97978       83.25406       27.61063
O         45.31796       84.73382       27.50311
H         47.63254       87.03650       23.73118
H         48.31860       85.37437       25.93896
H         46.28741       84.87674       23.67467
H         45.94806       85.84927       25.13606
H         46.70144       82.82922       25.11886
H         45.02870       83.45930       25.19864
N         49.47445       83.22321       25.04928
C         50.09887       82.01229       24.55585
H         51.17642       82.01622       24.81559
H         49.61496       81.13457       25.03616
H         49.99697       81.89907       23.45597
H         49.51413       83.39503       26.06521
Ca        45.72533       85.98968       29.29012
O         45.03606       85.38979       33.04451
H         44.57286       84.54628       33.27624
H         44.88786       85.97870       33.82689
O         47.04087       83.69764       30.89849
H         47.69743       83.51471       30.18043
H         46.34197       83.00653       30.77878
O         48.39193       86.68677       30.27419
H         48.88909       87.53311       30.39883
H         48.37595       86.55174       29.29337
O         45.13693       87.99747       31.70336
H         45.87770       88.43715       32.19210
H         44.31490       88.38211       32.09884

Ca 1.0



