%chk=apoCaM-CA-Ng.loop4.water3.frame472.chk
%nprocshared=20
%mem=10GB
%nosave
#b3lyp/svp scf=(tight,noincore,xqc) Test 
#IOP(5/87=12) Density=Current Pop=(MK,readradii) iop(6/33=2) iop(6/42=6)

apoCaM-CA-Ng.loop4.water3.frame472 

   -3  1 
C         32.01644       43.04052      103.82347
C         31.17295       43.35299      105.02178
O         30.80411       42.42528      105.71645
H         32.94418       42.52645      104.15682
H         31.45789       42.36504      103.14244
H         32.29902       43.96015      103.27206
N         30.85704       44.63837      105.34960
C         30.10862       45.01704      106.54368
C         30.79922       44.56571      107.81732
O         30.23787       43.79695      108.57382
C         28.56976       44.79076      106.44584
C         27.93015       43.52750      105.89592
O         27.99669       42.30648      106.46705
O         27.20797       43.64329      104.91752
H         31.21993       45.39989      104.75671
H         30.15784       46.12735      106.63520
H         28.21748       45.59641      105.76032
H         28.11658       45.02228      107.43281
N         32.02069       45.10823      108.11719
C         32.82462       44.95812      109.33660
C         32.15429       45.60724      110.55044
O         32.66708       46.61188      111.02451
C         33.28372       43.50286      109.61654
C         34.29314       43.41903      110.80024
C         33.86848       42.83628      108.36233
C         35.65449       44.08715      110.55519
H         32.42558       45.73960      107.40777
H         33.74709       45.54660      109.13980
H         32.39485       42.91691      109.90547
H         34.48897       42.35063      111.02043
H         33.84046       43.86453      111.71191
H         33.09980       42.76330      107.56583
H         34.73046       43.40578      107.96107
H         34.20407       41.80998      108.61046
H         36.18420       43.61328      109.70312
H         35.55344       45.17427      110.36697
H         36.29389       43.96007      111.45379
N         31.02046       45.09815      111.11377
C         30.32975       45.71631      112.23412
C         30.97874       45.37596      113.57861
O         31.30203       46.33244      114.26966
C         28.81188       45.44665      112.17156
C         28.18650       46.05952      110.94305
O         28.25248       47.26394      110.75257
O         27.52616       45.28802      110.06077
H         30.60175       44.24750      110.73358
H         30.39281       46.82552      112.12437
H         28.32210       45.90502      113.05863
H         28.60482       44.36493      112.15929
N         31.27153       44.12280      114.06233
C         31.10156       42.83220      113.40504
C         29.68698       42.28194      113.48373
O         28.82748       42.95778      114.03044
H         31.76911       44.09035      114.96650
H         31.72958       42.09474      113.94893
H         31.50977       42.89504      112.38477
N         29.33776       41.03652      113.01911
C         30.25406       40.03554      112.44804
C         30.95264       40.56052      111.20076
O         30.50121       41.56758      110.67728
C         29.47692       38.71388      112.18695
C         28.40961       38.85269      111.13613
O         27.11621       38.66612      111.45990
O         28.71123       39.10279      109.98003
H         28.34800       40.76704      113.13688
H         31.03175       39.83908      113.21836
H         29.00748       38.40037      113.14518
H         30.12798       37.88188      111.87486
N         32.09935       40.02779      110.68127
C         32.78093       38.81016      111.08126
C         34.01719       39.09864      111.87984
O         34.19528       40.21699      112.34078
H         32.56578       40.55373      109.93154
H         33.04716       38.25959      110.15229
H         32.17116       38.13887      111.69814
N         34.90562       38.09443      112.11858
C         36.06418       38.24402      112.99007
C         37.39254       38.22817      112.23475
O         38.38984       38.55760      112.86188
C         35.97314       37.25145      114.18011
C         35.68974       35.78178      113.81790
C         36.74684       35.17809      112.95422
N         38.00773       35.03223      113.40994
O         36.45679       34.79805      111.83211
H         34.73992       37.18340      111.66512
H         36.05229       39.25766      113.44805
H         35.11465       37.56818      114.81213
H         36.88760       37.33272      114.80588
H         34.70549       35.70821      113.30792
H         35.60826       35.17834      114.74713
H         38.26998       35.33397      114.35910
H         38.71577       34.59827      112.81069
N         37.49022       37.95993      110.89518
C         38.70357       38.24647      110.11581
C         39.41174       37.01462      109.56557
O         40.41942       37.20015      108.89503
C         38.37404       39.23151      108.94838
C         37.82486       40.56673      109.46972
C         37.40432       38.63477      107.90982
H         36.66134       37.61917      110.39121
H         39.46109       38.74783      110.75779
H         39.32498       39.46090      108.41668
H         38.55331       41.03328      110.16603
H         37.66341       41.26797      108.62215
H         36.85797       40.42473      109.99738
H         37.80357       37.68589      107.49370
H         36.40205       38.44085      108.34305
H         37.27771       39.34453      107.06524
N         38.98265       35.74343      109.79899
C         39.63931       34.56948      109.22867
C         38.69551       33.76237      108.34438
O         39.14505       32.75866      107.81030
C         40.21055       33.66466      110.34447
C         41.22767       34.36210      111.22190
N         42.34367       34.91725      110.69635
O         41.05542       34.40528      112.42969
H         38.16432       35.59628      110.39682
H         40.48689       34.86973      108.57652
H         40.72165       32.79580      109.87561
H         39.37698       33.26986      110.96608
H         42.52782       34.88882      109.68440
H         43.03001       35.38045      111.31091
N         37.39547       34.12919      108.11565
C         36.49018       33.32171      107.29097
C         35.17682       34.02545      106.98101
O         34.84465       34.98691      107.65072
C         36.22383       31.94931      107.96626
C         35.83072       32.05760      109.43526
C         36.69038       31.53567      110.42091
C         34.63009       32.66619      109.84776
C         36.35990       31.62114      111.77687
C         34.29749       32.74572      111.20417
C         35.15941       32.22500      112.17323
O         34.83217       32.32415      113.47769
H         37.04596       35.00706      108.52053
H         36.97498       33.17664      106.30007
H         37.15784       31.35614      107.89887
H         35.45930       31.37196      107.40409
H         37.62562       31.06646      110.14307
H         33.94245       33.08266      109.13473
H         37.04012       31.22124      112.51812
H         33.37106       33.22082      111.50301
H         35.41245       31.99766      114.18024
N         34.38078       33.54654      105.96750
C         33.08206       34.06955      105.52020
C         33.15519       35.40664      104.78183
O         32.73793       35.45194      103.63193
C         32.03968       34.10238      106.65360
C         31.74146       32.68863      107.17742
C         30.72857       32.72544      108.28380
O         31.04828       32.26054      109.50645
O         29.60809       33.16502      108.07909
H         34.71336       32.70574      105.47140
H         32.68494       33.35359      104.76228
H         31.09084       34.52204      106.24981
H         32.37735       34.76404      107.47810
H         32.67150       32.21347      107.54603
H         31.34737       32.05741      106.35158
N         33.62265       36.54128      105.37026
C         33.59645       37.86145      104.74815
C         34.43507       37.95268      103.47290
O         34.36285       38.98565      102.82070
C         34.11203       38.94055      105.74098
C         33.45745       38.96934      107.14156
C         32.00156       39.31568      107.13186
O         31.18712       38.58965      106.58695
O         31.59674       40.42165      107.78214
H         33.95684       36.48118      106.32235
H         32.54031       38.08318      104.48165
H         34.00602       39.94790      105.27979
H         35.19534       38.75478      105.90305
H         33.99305       39.73719      107.73288
H         33.59342       38.02001      107.69181
N         35.26052       36.94468      103.05920
C         36.06210       37.01483      101.85275
H         37.13487       36.90964      102.11799
H         35.77765       36.18357      101.17402
H         35.93007       37.97163      101.30529
H         35.35257       36.08396      103.61433
Ca        29.52811       41.28058      107.73513
O         27.53379       41.83716      110.25754
H         27.03705       41.86409      111.11297
H         27.80099       42.77417      110.09242
O         28.54343       39.90737      104.88564
H         28.68903       40.74866      104.38507
H         29.45585       39.60051      105.10869
O         26.35928       40.12526      107.97971
H         26.15096       39.54263      108.75257
H         25.90685       40.98159      108.18615

Ca 1.0



