%chk=apoCaM-CA-Ng.loop1.water2.frame924.chk
%nprocshared=20
%mem=10GB
%nosave
#b3lyp/svp scf=(tight,noincore,xqc) Test 
#IOP(5/87=12) Density=Current Pop=(MK,readradii) iop(6/33=2) iop(6/42=6)

apoCaM-CA-Ng.loop1.water2.frame924 

   0  1 
C         10.85165       31.05807       34.82717
C         12.03911       30.15953       34.62991
O         13.10057       30.65437       34.27985
H          9.95629       30.48556       35.15086
H         11.08494       31.80744       35.61320
H         10.61358       31.58349       33.88001
N         11.93628       28.82335       34.87299
C         13.05450       27.89147       34.77581
C         12.72269       26.73526       33.82426
O         11.71490       26.07050       34.00119
C         13.50215       27.44643       36.18842
C         12.48038       26.77860       37.07146
O         11.20634       26.61181       36.67437
O         12.82746       26.36418       38.16485
H         11.02433       28.46085       35.18402
H         13.95030       28.41054       34.37034
H         13.87089       28.34516       36.73112
H         14.36156       26.75161       36.06569
N         13.55220       26.46210       32.77330
C         13.32295       25.45378       31.72808
C         13.15373       24.05283       32.28529
O         14.03881       23.58006       32.98510
C         14.51568       25.51491       30.72745
C         14.47967       24.60116       29.47961
C         14.81702       23.12154       29.75614
C         14.86344       22.24881       28.48989
N         15.95592       22.61563       27.58658
H         14.40542       27.03683       32.69520
H         12.40407       25.72909       31.16574
H         15.47796       25.34726       31.26056
H         14.52785       26.55905       30.34307
H         15.27101       24.98952       28.80615
H         13.50255       24.70121       28.95974
H         14.05135       22.67423       30.40248
H         15.79384       23.04699       30.28146
H         13.89062       22.30003       27.95254
H         15.01940       21.19730       28.81656
H         15.81073       23.56984       27.18922
H         16.87068       22.57117       28.09201
H         15.98016       21.93480       26.79316
N         12.06325       23.30000       31.92519
C         11.89225       21.88797       32.28643
C         11.87720       21.05207       31.00465
O         11.67817       21.63321       29.94568
C         10.56910       21.66393       33.06990
C         10.31123       22.75795       34.06842
O         10.07931       23.88529       33.66168
O         10.33803       22.54841       35.39630
H         11.34593       23.72801       31.31902
H         12.75093       21.58584       32.92190
H         10.59983       20.67056       33.56466
H          9.69954       21.67146       32.37542
N         12.07527       19.70495       30.94880
C         12.41900       18.81686       32.04469
C         13.75602       18.15719       31.76763
O         14.43432       18.54019       30.82431
H         12.01490       19.26517       30.01748
H         11.63702       18.02901       32.09755
H         12.46427       19.33002       33.02436
N         14.19973       17.13950       32.55613
C         15.46777       16.45095       32.32046
C         15.44817       15.74284       30.97252
O         14.60698       14.87637       30.77260
C         15.72495       15.42152       33.44911
C         17.05904       14.71777       33.37043
O         17.86191       14.96588       32.48428
O         17.37414       13.80235       34.30613
H         13.61013       16.84880       33.35196
H         16.28735       17.20289       32.35489
H         14.92042       14.65333       33.43764
H         15.68626       15.94738       34.42695
N         16.37417       16.03519       30.01159
C         16.44648       15.30188       28.75584
C         15.23503       15.48646       27.86770
O         15.09127       14.71268       26.93047
H         17.08999       16.75342       30.19807
H         16.55613       14.22312       29.00041
H         17.34652       15.60637       28.17835
N         14.35333       16.50964       28.05418
C         13.16434       16.70818       27.23455
C         11.92703       16.85279       28.10734
O         12.02420       16.79641       29.32702
C         13.36100       17.90606       26.27106
C         13.56292       19.23844       26.99008
O         14.47285       17.66753       25.44668
H         14.54699       17.20371       28.78581
H         12.99313       15.81791       26.58848
H         12.45899       18.02546       25.62833
H         14.19335       16.99225       24.77334
H         13.68100       20.04774       26.23864
H         12.68594       19.47872       27.62422
H         14.47570       19.20871       27.61739
N         10.70883       16.98245       27.52202
C          9.44408       16.99660       28.24313
C          8.82192       15.64371       28.01920
O          8.55704       14.95578       28.99460
C          8.54674       18.18006       27.77229
C          9.19803       19.51880       28.20872
C          7.11500       18.05041       28.33708
C          8.46059       20.76642       27.71763
H         10.66720       16.97145       26.49173
H          9.59943       17.09967       29.34282
H          8.46952       18.15029       26.66240
H         10.22986       19.56929       27.80321
H          9.26152       19.55864       29.31920
H          6.64520       17.10125       28.00301
H          7.12144       18.07527       29.44702
H          6.45723       18.85759       27.95743
H          8.40410       20.76870       26.60903
H          7.43843       20.83355       28.14149
H          9.01331       21.67110       28.04864
N          8.63467       15.16509       26.75548
C          8.16468       13.81382       26.50146
C          6.90061       13.85921       25.67682
O          6.59144       14.88374       25.08476
C          9.27279       12.99465       25.79415
C         10.58771       13.02623       26.59103
O          8.85095       11.66337       25.64519
H          8.88246       15.75128       25.94518
H          7.92119       13.31133       27.46278
H          9.45707       13.44516       24.79060
H          9.48844       11.22533       25.02268
H         11.36514       12.43103       26.06732
H         10.97009       14.06538       26.67947
H         10.43897       12.60870       27.60904
N          6.08721       12.77136       25.64898
C          4.83675       12.72916       24.91093
C          3.68439       12.75381       25.89764
O          2.86504       13.65883       25.80147
C          4.83993       11.55561       23.89285
C          4.99238       10.15399       24.49102
O          5.89576       11.74847       22.98552
H          6.34687       11.95545       26.22065
H          4.72097       13.64484       24.28760
H          3.87020       11.55773       23.34086
H          5.56355       12.35544       22.27354
H          5.93568       10.05657       25.06790
H          4.12737        9.89931       25.12631
H          5.02121        9.40477       23.67202
N          3.57785       11.83980       26.90340
C          2.51937       11.87718       27.90896
C          3.10222       11.96455       29.30975
O          4.31466       11.90004       29.47232
C          1.55201       10.69103       27.69563
C          2.19660        9.29269       27.72244
C          1.19281        8.24167       27.22406
C          1.83496        6.85420       27.09404
N          0.89965        5.90537       26.48824
H          4.28836       11.09899       26.97974
H          1.90499       12.79568       27.78217
H          1.11104       10.84263       26.68550
H          0.71898       10.72911       28.43036
H          2.56525        9.04956       28.74234
H          3.05318        9.26467       27.02498
H          0.84117        8.54717       26.21339
H          0.31545        8.19391       27.90521
H          2.14740        6.48963       28.09698
H          2.73836        6.92214       26.44670
H          0.03514        5.82366       27.07044
H          0.64434        6.22315       25.52401
H          1.35653        4.96767       26.41826
N          2.27796       12.16068       30.37671
C          2.75534       12.30092       31.74806
C          3.70547       13.49438       31.89778
O          4.83222       13.25737       32.30940
C          1.55889       12.32720       32.72798
C          1.98771       12.43559       34.20167
C          0.82745       12.31892       35.15772
O         -0.31335       12.14463       34.75603
O          1.05449       12.39645       36.48233
H          1.26211       12.21472       30.20214
H          3.32712       11.38013       32.00767
H          1.00531       11.37186       32.59026
H          0.85416       13.14522       32.49390
H          2.48312       13.41610       34.37018
H          2.70935       11.62488       34.43751
N          3.39697       14.78905       31.58720
C          2.13437       15.24745       31.05250
H          1.31868       15.09799       31.78072
H          2.19149       16.33988       30.85623
H          1.91158       14.74058       30.09223
H          4.13032       15.50413       31.71949
Ca        10.33759       24.54747       36.44945
O         13.28617       23.91195       36.14369
H         13.03050       22.99898       35.86035
H         14.27249       23.93244       36.06610
O         11.27803       23.56703       39.05723
H         11.52047       24.50492       39.25634
H         10.29193       23.54922       39.14264

Ca 1.0



