%chk=apoCaM-CA-Ng.loop3.water2.frame535.chk
%nprocshared=20
%mem=10GB
%nosave
#b3lyp/svp scf=(tight,noincore,xqc) Test 
#IOP(5/87=12) Density=Current Pop=(MK,readradii) iop(6/33=2) iop(6/42=6)

apoCaM-CA-Ng.loop3.water2.frame535 

   0  1 
C         75.37203       11.00232       79.37722
C         75.30820       10.98716       80.87791
O         74.45008       10.32553       81.44369
H         76.36403       10.62407       79.04625
H         74.58389       10.35828       78.93445
H         75.24478       12.04089       79.00652
N         76.23716       11.67834       81.58872
C         76.32043       11.66188       83.04715
C         75.17790       12.46959       83.64011
O         75.17363       13.67711       83.43525
C         77.68910       12.27772       83.43294
C         78.21205       12.05709       84.81948
O         79.32798       12.48029       85.07706
O         77.60737       11.26071       85.71837
H         76.96226       12.17951       81.04940
H         76.29359       10.60256       83.38118
H         77.69418       13.36413       83.19732
H         78.45789       11.80088       82.78552
N         74.15104       11.89875       84.34731
C         73.08058       12.73848       84.89229
C         73.53040       13.49843       86.13284
O         72.79190       14.36765       86.57663
C         71.75820       11.98075       85.14516
C         71.74256       11.04538       86.36358
C         70.33528       10.44480       86.53658
C         70.21387        9.59270       87.80669
N         68.87068        9.02681       87.93055
H         74.10632       10.87336       84.44426
H         72.81746       13.47458       84.09860
H         71.47915       11.42236       84.22478
H         70.97245       12.75070       85.31955
H         71.99087       11.62770       87.27723
H         72.49749       10.24618       86.23447
H         70.09153        9.82615       85.64521
H         69.59159       11.26935       86.60973
H         70.43506       10.21797       88.69991
H         70.94343        8.76623       87.77905
H         68.16217        9.79197       88.00849
H         68.65479        8.42854       87.09982
H         68.82666        8.43439       88.79112
N         74.71848       13.22268       86.75066
C         75.21080       13.94965       87.91360
C         76.44807       14.77560       87.57395
O         76.87635       15.54227       88.42399
C         75.42619       12.97667       89.09954
C         76.35091       11.82112       88.80751
O         77.52435       12.01123       88.54419
O         75.88624       10.55806       88.86540
H         75.31894       12.47229       86.38140
H         74.45398       14.69365       88.24444
H         74.43571       12.55143       89.37112
H         75.80749       13.53333       89.98282
N         77.04802       14.71713       86.34505
C         78.15133       15.57297       85.92983
C         79.44339       15.42346       86.71563
O         80.37149       16.15732       86.40542
H         76.67673       14.08607       85.62684
H         77.81521       16.62986       85.99957
H         78.38062       15.36331       84.86151
N         79.58557       14.54741       87.75152
C         80.77200       14.47623       88.59841
C         81.33187       13.06351       88.67455
O         80.73422       12.13347       88.15139
C         80.37266       14.93919       90.01863
C         79.98789       16.39636       90.05081
N         80.90669       17.35238       89.77893
O         78.84719       16.71849       90.34715
H         78.80355       13.93907       88.00513
H         81.58022       15.13033       88.20622
H         81.20634       14.80580       90.73785
H         79.51925       14.31351       90.36858
H         81.87890       17.09744       89.55160
H         80.65267       18.35045       89.81418
N         82.49236       12.84157       89.35800
C         83.05581       11.52542       89.61719
C         83.43385       10.78316       88.35933
O         84.25653       11.27880       87.60213
H         82.98600       13.65163       89.76407
H         82.32625       10.93866       90.21407
H         83.97528       11.64337       90.23069
N         82.85860        9.57694       88.07692
C         83.14352        8.81046       86.87127
C         81.90431        8.86427       85.94828
O         81.41913       10.16170       85.83340
C         83.46297        7.32726       87.20291
C         84.80767        7.05200       87.84018
C         85.13424        7.51637       89.12554
C         85.74547        6.26384       87.14331
C         86.37390        7.19541       89.69757
C         86.97874        5.94819       87.71410
C         87.29776        6.41093       88.99565
O         88.48279        6.10294       89.56141
H         82.13776        9.20997       88.71686
H         83.98990        9.25914       86.30563
H         83.43282        6.75371       86.25337
H         82.66404        6.90210       87.84583
H         84.43032        8.10927       89.69332
H         85.52228        5.88164       86.15458
H         86.61516        7.54885       90.69195
H         87.68126        5.33706       87.16022
H         89.14197        5.55665       89.10828
N         82.17363        8.24265       84.61906
C         81.51829        8.72493       83.37129
C         80.00432        8.59070       83.39757
O         79.36998        9.23103       84.21215
C         81.90663       10.19215       82.95115
C         81.29288       10.60183       81.57901
C         83.42570       10.43113       82.95447
C         81.78952        9.80331       80.36977
H         83.20147        8.17245       84.43564
H         81.89937        8.05965       82.56871
H         81.47408       10.91346       83.67000
H         81.51647       11.67510       81.39419
H         80.18702       10.51115       81.62231
H         83.64576       11.47599       82.64616
H         83.84141       10.30339       83.97442
H         83.94650        9.73283       82.26831
H         81.55145        8.72600       80.46436
H         81.28447       10.17954       79.45548
H         82.88221        9.93014       80.23181
N         79.33732        7.88956       82.43609
C         77.88546        8.00333       82.29962
C         77.10424        7.34232       83.42658
O         75.91216        7.60236       83.52298
C         77.40658        7.46687       80.94382
O         78.01835        8.17410       79.89604
H         79.87895        7.39304       81.71325
H         77.64745        9.08862       82.30762
H         76.30838        7.60863       80.84870
H         77.60364        6.37272       80.86299
H         78.78647        7.63052       79.58121
N         77.67418        6.45212       84.28898
C         76.91313        5.81361       85.35900
C         76.54579        6.83955       86.41848
O         77.45283        7.48583       86.91964
C         77.72364        4.68032       85.99729
H         78.66251        6.18925       84.15881
H         76.02450        5.33395       84.91968
H         77.98362        3.92384       85.22657
H         78.65932        5.05413       86.45119
H         77.12236        4.18031       86.78657
N         75.27366        7.08160       86.84789
C         74.06645        6.39267       86.40264
C         74.11936        4.91517       86.77386
O         74.34696        4.63375       87.94254
C         72.85219        7.02410       87.08229
H         75.16642        7.81939       87.56391
H         73.93397        6.57397       85.32278
H         72.82390        8.09369       86.80571
H         71.90686        6.55194       86.74804
H         72.91893        6.94011       88.18845
N         73.92215        3.89225       85.88658
C         73.52756        4.04848       84.48888
C         74.03613        2.87632       83.66993
O         74.78217        3.10294       82.72689
C         71.99938        4.24339       84.39189
C         71.56292        4.69595       82.99122
C         70.09568        5.02082       82.96422
O         69.18332        4.06643       83.22768
O         69.72356        6.15437       82.70281
H         73.98014        2.93498       86.26731
H         74.00861        4.94369       84.05639
H         71.70781        5.05013       85.09214
H         71.46359        3.31848       84.70025
H         71.78144        3.90840       82.24041
H         72.13343        5.61272       82.71985
N         73.70905        1.59309       83.99601
C         74.21912        0.43769       83.28399
H         74.82883       -0.17924       83.97799
H         73.37122       -0.17175       82.91053
H         74.85868        0.71764       82.42035
H         73.09517        1.41413       84.80436
Ca        79.26964       10.05743       86.64144
O         80.10683        7.07567       87.32080
H         80.28790        6.70250       86.42118
H         80.16960        6.30228       87.93381
O         78.95464        8.93407       89.59665
H         78.32447        8.17816       89.70636
H         79.84826        8.53589       89.74913

Ca 1.0



