%chk=apoCaM-CA-Ng.loop1.water3.frame1418.chk
%nprocshared=20
%mem=10GB
%nosave
#b3lyp/svp scf=(tight,noincore,xqc) Test 
#IOP(5/87=12) Density=Current Pop=(MK,readradii) iop(6/33=2) iop(6/42=6)

apoCaM-CA-Ng.loop1.water3.frame1418 

   0  1 
C         81.29305       95.92849       21.99915
C         82.11530       96.27092       20.79784
O         81.56900       96.30471       19.70477
H         80.24104       95.72161       21.70322
H         81.70752       95.02203       22.48745
H         81.30595       96.77837       22.71067
N         83.45443       96.50846       20.92146
C         84.30737       96.80458       19.77684
C         85.22804       95.63189       19.51576
O         86.42965       95.79769       19.35411
C         85.05727       98.13293       19.98703
C         84.10486       99.27725       20.19062
O         84.12765       99.97555       21.34189
O         83.31000       99.58162       19.31542
H         83.89077       96.43394       21.85308
H         83.69671       96.89720       18.86140
H         85.69257       98.35508       19.10189
H         85.71622       98.04125       20.87823
N         84.68646       94.38607       19.44861
C         85.43633       93.19255       19.09216
C         85.82966       93.25094       17.61769
O         87.01659       93.12410       17.35292
C         84.66524       91.90288       19.46772
C         84.39912       91.86072       20.98784
C         83.68210       90.57890       21.41783
C         83.42280       90.59150       22.93276
N         82.73697       89.37330       23.35959
H         83.68358       94.28681       19.66136
H         86.36388       93.15015       19.70910
H         85.29128       91.02521       19.19379
H         83.70476       91.81457       18.92441
H         83.76935       92.72594       21.28591
H         85.36750       91.93052       21.53151
H         84.30994       89.69950       21.15654
H         82.71136       90.50247       20.88134
H         82.79652       91.47372       23.19603
H         84.38999       90.67660       23.47730
H         81.81451       89.29162       22.87362
H         83.32627       88.53633       23.14549
H         82.57302       89.41722       24.39150
N         84.96144       93.51281       16.58689
C         83.52688       93.77030       16.71003
C         83.22710       95.25409       16.52648
O         84.13606       96.02256       16.24261
C         82.73799       92.90503       15.71347
C         83.01484       93.28362       14.28532
O         82.80855       94.55469       13.88567
O         83.36547       92.43975       13.48009
H         85.37049       93.60692       15.64354
H         83.16418       93.50308       17.70871
H         81.65126       93.05158       15.89106
H         82.95923       91.82754       15.88318
N         81.96460       95.73551       16.72370
C         81.65747       97.15658       16.66679
C         81.53784       97.71100       15.27012
O         81.49315       96.96136       14.30581
H         81.22411       95.08834       17.03409
H         82.42568       97.71907       17.23267
H         80.67932       97.34540       17.15893
N         81.46845       99.06082       15.10520
C         81.22200       99.72674       13.82904
C         80.13596      100.79712       14.00560
O         79.86654      101.17406       15.14020
C         82.53284      100.37991       13.34155
C         83.58121       99.34565       13.04123
O         84.74602       99.34696       13.71587
O         83.38727       98.50956       12.17241
H         81.61468       99.65139       15.94010
H         80.88775       98.98110       13.07778
H         82.90594      101.08027       14.12024
H         82.37977      100.96601       12.41756
N         79.46753      101.38007       12.96574
C         79.55424      100.95255       11.57828
C         78.92002       99.59726       11.39409
O         78.34143       99.06623       12.33068
H         78.81320      102.14976       13.17591
H         80.60170      100.95087       11.23391
H         78.99268      101.66309       10.93425
N         78.98712       98.97284       10.18495
C         78.37939       97.66516        9.95909
C         78.95430       96.61478       10.89738
O         80.04061       96.77919       11.43477
C         78.54684       97.21499        8.48392
C         77.74062       98.09033        7.52360
O         78.10948       95.88845        8.32236
H         79.48083       99.44816        9.41543
H         77.29306       97.75200       10.18939
H         79.63107       97.29907        8.22594
H         78.85048       95.38421        7.89705
H         76.65639       97.99838        7.75217
H         78.03489       99.15632        7.59476
H         77.90767       97.74612        6.48064
N         78.20502       95.51037       11.16067
C         78.57771       94.40713       12.02770
C         79.79679       93.66509       11.40045
O         80.86922       93.71008       12.28436
C         78.78096       94.82665       13.53057
C         77.77449       95.87882       14.05527
C         78.78903       93.58059       14.44467
C         76.30511       95.47597       13.99357
H         77.27874       95.44046       10.71072
H         77.69893       93.72226       12.01785
H         79.76286       95.32850       13.62874
H         77.89869       96.81317       13.47385
H         78.03396       96.12336       15.11000
H         77.81599       93.04879       14.39704
H         79.57234       92.85405       14.15124
H         78.98490       93.87250       15.49802
H         75.99732       95.28362       12.94624
H         76.10879       94.58041       14.61530
H         75.69163       96.31344       14.38917
N         79.46696       92.26082       11.16131
C         80.60791       91.40585       10.77818
C         80.76424       91.18163        9.27916
O         81.62709       90.38597        8.93901
C         80.50364       90.07897       11.56719
C         79.22787       89.29764       11.25261
O         80.52927       90.35040       12.94591
H         78.60480       92.11057       10.58990
H         81.57749       91.84610       11.10115
H         81.36773       89.42074       11.31237
H         81.47077       90.55957       13.18283
H         78.32804       89.88830       11.52554
H         79.18401       89.03898       10.17467
H         79.21715       88.35846       11.84497
N         80.01724       91.82353        8.32290
C         80.20933       91.55604        6.89465
C         81.61433       91.99660        6.50421
O         81.86576       93.18955        6.40656
C         79.12336       92.22811        6.01405
C         77.70707       91.77941        6.39972
O         79.19922       93.62711        6.12198
H         79.30611       92.50846        8.60539
H         80.10446       90.45700        6.74937
H         79.30397       91.90495        4.95988
H         79.23807       93.99867        5.20202
H         77.61226       90.67629        6.32252
H         77.45058       92.08559        7.43576
H         76.96550       92.24994        5.72054
N         82.61776       91.07063        6.45654
C         84.04833       91.37709        6.42578
C         84.45635       92.25277        7.61348
O         83.59380       92.75746        8.31873
C         84.50062       92.00621        5.09405
C         84.11526       91.15013        3.87761
C         84.75541       91.71797        2.60027
C         84.38520       90.93746        1.32811
N         82.97442       91.09815        0.97035
H         82.36863       90.07600        6.56904
H         84.58492       90.40722        6.53663
H         85.60800       92.10556        5.12485
H         84.06616       93.02175        4.97358
H         83.00876       91.13731        3.79595
H         84.47661       90.10733        4.01795
H         85.85987       91.66293        2.72343
H         84.47567       92.78512        2.46518
H         84.63046       89.85917        1.45171
H         85.00404       91.33344        0.49239
H         82.79574       90.60489        0.06600
H         82.35186       90.68432        1.69883
H         82.75164       92.11276        0.84509
N         85.76859       92.45126        7.92257
C         86.19766       93.31281        9.02597
C         85.49220       92.96426       10.33703
O         84.85763       93.85812       10.87558
C         87.73038       93.31541        9.20085
C         88.46248       93.96078        8.01641
C         89.94825       93.91462        8.23222
O         90.65595       95.05670        8.31922
O         90.52233       92.84079        8.32518
H         86.48079       91.96047        7.36104
H         85.90434       94.36074        8.78256
H         88.10257       92.28483        9.33535
H         87.98440       93.90517       10.11057
H         88.13511       95.01958        7.92171
H         88.22881       93.43445        7.06828
N         85.48547       91.73314       10.92396
C         86.14530       90.55443       10.41672
H         87.24109       90.68154       10.43798
H         85.90798       89.69271       11.07615
H         85.78622       90.31329        9.39686
H         84.94271       91.61728       11.79100
Ca        82.50220       95.15453       11.74950
O         81.59195       95.38894        8.83661
H         81.95180       96.22968        8.45826
H         82.39553       94.88456        9.11525
O         85.37631       96.26901       13.09151
H         86.15780       96.81116       13.36533
H         85.21256       95.66990       13.86124
O         84.64688       96.89878        9.83264
H         85.59612       96.75115       10.07265
H         84.60606       96.72192        8.85936

Ca 1.0



