%chk=apoCaM-CA-Ng.loop3.water6.frame1063.chk
%nprocshared=20
%mem=10GB
%nosave
#b3lyp/svp scf=(tight,noincore,xqc) Test 
#IOP(5/87=12) Density=Current Pop=(MK,readradii) iop(6/33=2) iop(6/42=6)

apoCaM-CA-Ng.loop3.water6.frame1063 

   0  1 
C         35.01991       73.59465       42.58195
C         36.09875       74.44615       43.17995
O         35.92537       74.93055       44.28947
H         34.08362       74.18671       42.51778
H         35.29288       73.25790       41.55937
H         34.84939       72.70054       43.21674
N         37.25865       74.66099       42.50231
C         38.32096       75.50940       43.01720
C         37.92626       76.97402       42.90205
O         37.86822       77.64040       43.92553
C         39.69402       75.12241       42.40459
C         39.78884       75.01579       40.89714
O         39.68945       76.09252       40.10009
O         40.01503       73.92971       40.38776
H         37.38929       74.19610       41.59175
H         38.46417       75.28982       44.10218
H         39.91930       74.10806       42.79981
H         40.48353       75.79731       42.79762
N         37.64106       77.54488       41.69693
C         37.28722       78.95075       41.52460
C         38.46795       79.68968       40.91660
O         38.37763       80.29096       39.85500
C         36.02545       79.07128       40.66700
C         34.75244       78.58058       41.38339
C         33.55457       78.67449       40.42628
C         33.55783       77.52730       39.39765
N         32.67479       77.82874       38.27452
H         37.69691       76.96825       40.85009
H         37.10190       79.44814       42.50266
H         36.21204       78.52565       39.72052
H         35.86063       80.14275       40.41547
H         34.58183       79.26323       42.24546
H         34.84882       77.54467       41.77682
H         33.59128       79.66678       39.92467
H         32.59675       78.62188       40.98872
H         33.23563       76.59188       39.90987
H         34.56815       77.34041       38.98419
H         32.62965       76.99662       37.64326
H         31.71483       78.07285       38.60613
H         33.07782       78.63044       37.73456
N         39.62131       79.69786       41.62561
C         40.84926       80.40603       41.28176
C         42.01018       79.43608       41.13832
O         43.12932       79.87956       40.92169
C         41.13331       81.48223       42.35972
C         41.30644       80.95583       43.76472
O         40.35362       80.16404       44.28540
O         42.26885       81.28374       44.43878
H         39.61095       79.14364       42.48622
H         40.73174       80.94162       40.31441
H         40.25704       82.16593       42.37562
H         42.02207       82.08747       42.07594
N         41.81160       78.09038       41.23680
C         42.85255       77.09285       41.14757
C         43.56191       77.05933       39.81286
O         43.29290       77.88575       38.95276
H         40.87194       77.72418       41.41202
H         42.38062       76.10537       41.30035
H         43.58937       77.26928       41.95914
N         44.52668       76.13067       39.56227
C         44.84982       75.04762       40.48552
C         43.75766       73.98308       40.40971
O         43.46178       73.54318       39.30796
C         46.23512       74.46434       40.16293
C         46.64613       73.46303       41.21722
N         47.59266       73.77729       42.13282
O         46.09526       72.37328       41.26805
H         45.04213       76.19285       38.66962
H         44.97008       75.46879       41.50460
H         46.94888       75.31726       40.18407
H         46.28393       74.00907       39.15028
H         48.04497       74.70334       42.13097
H         47.84918       73.10562       42.87118
N         43.11068       73.49100       41.50633
C         43.46425       73.84937       42.87226
C         42.66664       73.10658       43.91646
O         41.72107       72.39803       43.59074
H         42.37939       72.78159       41.34018
H         43.33206       74.93558       43.04911
H         44.52947       73.58515       43.03043
N         43.04643       73.19278       45.22115
C         42.37407       72.48140       46.30012
C         42.04111       73.44185       47.43629
O         42.47504       74.58841       47.40371
C         43.30186       71.32151       46.73162
C         42.69918       70.29391       47.65919
C         43.31468       69.99477       48.88636
C         41.54860       69.57960       47.27932
C         42.79095       68.99697       49.71525
C         41.02332       68.58816       48.11260
C         41.64651       68.28978       49.33212
O         41.16140       67.32247       50.13664
H         43.89646       73.73545       45.44782
H         41.42230       72.05309       45.91883
H         44.23787       71.74643       47.15742
H         43.58548       70.76121       45.81290
H         44.21109       70.51795       49.19463
H         41.06223       69.77969       46.33347
H         43.28222       68.76514       50.65189
H         40.13897       68.04500       47.80359
H         40.38108       66.80029       49.90092
N         41.23636       73.05510       48.46227
C         40.87665       73.94361       49.57326
C         42.08539       74.31121       50.43274
O         43.15767       73.75591       50.24115
C         39.74211       73.33018       50.45910
C         38.40704       73.31380       49.67533
C         40.11311       71.93839       51.02316
C         37.20512       72.89895       50.52505
H         40.82890       72.11269       48.40839
H         40.49649       74.89639       49.14467
H         39.58372       74.00811       51.32458
H         38.47601       72.65360       48.78483
H         38.20154       74.34801       49.32469
H         41.08223       71.97910       51.56119
H         39.35049       71.59217       51.74881
H         40.18188       71.16643       50.22983
H         37.28720       71.84269       50.85006
H         37.11859       73.55673       51.41665
H         36.27726       73.00009       49.92351
N         41.95692       75.25618       51.41772
C         43.03385       75.62862       52.33535
C         43.37338       77.11166       52.24911
O         42.68241       77.85469       51.56941
C         42.61561       75.26187       53.76701
O         41.46151       75.97280       54.12864
H         41.04417       75.71937       51.54080
H         43.95703       75.06333       52.08445
H         43.43632       75.49943       54.47815
H         42.41000       74.16802       53.80150
H         41.17752       75.61420       55.00884
N         44.46936       77.59456       52.91422
C         44.94114       78.97905       52.86975
C         44.04610       79.96642       53.60785
O         44.29233       81.15939       53.49369
C         45.23670       79.41764       51.42627
H         45.04405       76.92774       53.45051
H         45.91758       79.02717       53.40157
H         44.32127       79.47324       50.80541
H         45.71131       80.42253       51.42278
H         45.95022       78.70486       50.96071
N         43.05360       79.55497       54.45281
C         42.23972       80.46172       55.25696
C         41.40702       81.36161       54.37374
O         41.51443       82.57849       54.45628
C         43.09673       81.24695       56.26807
H         42.87466       78.54794       54.57182
H         41.52828       79.85371       55.85960
H         43.82301       81.92090       55.77044
H         42.44024       81.87273       56.91152
H         43.65203       80.54319       56.92216
N         40.50832       80.80016       53.52101
C         39.60599       81.57756       52.68620
C         38.16083       81.41044       53.14509
O         37.31456       82.16323       52.68198
C         39.81941       81.15086       51.22438
C         38.95057       81.91537       50.22432
C         39.27390       81.47380       48.84118
O         39.66033       82.28340       48.01327
O         39.13168       80.18341       48.49342
H         40.44403       79.77043       53.48466
H         39.84149       82.66084       52.77902
H         39.60868       80.06155       51.13042
H         40.88982       81.31997       50.96725
H         39.12975       83.00824       50.32229
H         37.87588       81.70313       50.39155
N         37.79135       80.47651       54.06796
C         36.42460       80.35620       54.52124
H         35.75257       80.15927       53.65901
H         36.33907       79.51527       55.24117
H         36.11645       81.29472       55.02870
H         38.47607       79.81990       54.46507
Ca        39.62339       79.85024       46.35908
O         42.46759       80.11131       47.11496
H         43.33738       80.53050       46.89982
H         42.01112       80.76934       47.69672
O         36.49392       78.31704       46.48716
H         36.07379       77.48626       46.14942
H         36.30775       78.99061       45.78606
O         37.58205       81.32792       45.06822
H         37.20627       81.40918       44.15678
H         37.19398       82.08462       45.57435
O         41.22268       77.86625       48.88238
H         40.83874       78.36550       49.64607
H         42.17044       78.14992       48.85276
O         38.69895       76.42545       47.34955
H         38.94100       75.47552       47.20946
H         38.80353       76.57149       48.32330
O         41.49263       77.32868       45.46147
H         42.38995       76.96195       45.26065
H         41.08077       76.65784       46.06123

Ca 1.0



