%chk=apoCaM-CA-Ng.loop3.water3.frame675.chk
%nprocshared=20
%mem=10GB
%nosave
#b3lyp/svp scf=(tight,noincore,xqc) Test 
#IOP(5/87=12) Density=Current Pop=(MK,readradii) iop(6/33=2) iop(6/42=6)

apoCaM-CA-Ng.loop3.water3.frame675 

   0  1 
C        -19.95707       60.10108       94.45826
C        -20.23606       60.97095       95.64561
O        -21.37504       61.00678       96.08740
H        -18.88356       60.13083       94.17779
H        -20.22857       59.05243       94.70330
H        -20.56400       60.44331       93.59476
N        -19.23966       61.70495       96.21721
C        -19.43194       62.52427       97.40284
C        -19.19935       63.98687       97.06049
O        -18.13862       64.32456       96.55323
C        -18.47984       62.03332       98.51370
C        -18.75911       62.65115       99.85486
O        -18.02237       62.28652      100.92093
O        -19.65007       63.47147       99.99360
H        -18.29434       61.67097       95.80513
H        -20.46629       62.40160       97.78559
H        -17.42443       62.22164       98.22360
H        -18.60373       60.94145       98.64048
N        -20.16108       64.91480       97.33545
C        -20.02361       66.34240       97.04731
C        -18.80606       66.92210       97.74704
O        -18.03267       67.63946       97.12911
C        -21.24411       67.15575       97.55494
C        -22.61285       66.73197       96.99828
C        -23.70282       67.67693       97.53160
C        -25.10588       67.24668       97.08720
N        -26.11571       68.18645       97.57713
H        -21.01980       64.58694       97.79838
H        -19.94350       66.49666       95.94795
H        -21.07389       68.22074       97.27729
H        -21.29319       67.10077       98.66330
H        -22.84960       65.69957       97.32271
H        -22.60211       66.76565       95.88769
H        -23.49899       68.70683       97.16392
H        -23.67612       67.68656       98.64396
H        -25.32349       66.23168       97.48919
H        -25.15302       67.20522       95.97698
H        -25.94522       69.13718       97.17511
H        -27.06344       67.86015       97.27992
H        -26.08839       68.23784       98.62170
N        -18.61050       66.65360       99.06597
C        -17.59316       67.26881       99.91162
C        -16.48144       66.30607      100.32343
O        -15.55041       66.75717      100.97623
C        -18.28500       67.87257      101.16798
C        -19.25916       66.90656      101.82984
O        -18.89496       65.62429      102.03892
O        -20.41513       67.24547      102.02350
H        -19.24731       65.97397       99.50007
H        -17.07041       68.08211       99.36034
H        -18.85552       68.77863      100.86661
H        -17.50910       68.19953      101.89305
N        -16.47329       64.99246       99.96617
C        -15.38839       64.07516      100.29667
C        -15.17682       63.79046      101.78047
O        -14.26761       63.02641      102.07078
H        -17.23287       64.63307       99.37872
H        -14.44280       64.47759       99.87348
H        -15.58727       63.10007       99.80135
N        -15.93867       64.34466      102.77089
C        -15.71686       64.10303      104.19854
C        -16.95864       63.51239      104.84778
O        -17.98958       63.45123      104.20634
C        -15.39274       65.44594      104.88656
C        -14.19316       66.12306      104.27240
N        -14.31047       67.33983      103.68804
O        -13.10502       65.56872      104.30360
H        -16.69550       64.98531      102.52297
H        -14.87545       63.39286      104.34800
H        -15.19752       65.28937      105.96871
H        -16.27946       66.11401      104.79553
H        -15.21927       67.82496      103.64738
H        -13.49006       67.80013      103.26687
N        -16.94277       63.07616      106.13930
C        -18.14448       62.65700      106.85280
C        -18.88722       61.52326      106.17634
O        -18.32259       60.44949      106.02313
H        -16.05165       63.08683      106.65818
H        -18.81549       63.53693      106.94584
H        -17.86783       62.33831      107.88120
N        -20.17408       61.70841      105.74617
C        -20.97003       60.67908      105.08587
C        -21.26084       61.09419      103.62445
O        -20.06257       61.44414      103.00004
C        -22.31352       60.47342      105.82299
C        -22.19513       59.87522      107.20173
C        -21.68959       58.57426      107.37194
C        -22.64736       60.58668      108.32484
C        -21.64567       57.99414      108.64404
C        -22.59909       60.00619      109.59584
C        -22.10449       58.70833      109.76049
O        -22.08399       58.15681      110.99088
H        -20.60889       62.63582      105.86766
H        -20.41001       59.71819      105.05089
H        -22.96223       59.77804      105.24818
H        -22.84079       61.45227      105.86135
H        -21.34971       58.00021      106.51888
H        -23.05053       61.58565      108.21695
H        -21.26633       56.98629      108.75919
H        -22.95900       60.56213      110.45233
H        -21.76816       57.25523      111.14649
N        -21.95977       59.98776      102.92534
C        -22.11409       59.99317      101.45510
C        -22.68728       61.31396      100.97303
O        -22.04673       62.33881      101.14914
C        -20.80968       59.59840      100.67908
C        -21.05252       59.47097       99.14676
C        -20.16070       58.30608      101.21391
C        -22.02511       58.36923       98.71185
H        -21.66395       59.04314      103.26051
H        -22.85434       59.19507      101.24087
H        -20.05879       60.40034      100.80947
H        -20.08405       59.25748       98.64766
H        -21.42560       60.43833       98.75470
H        -19.25599       58.05670      100.61901
H        -19.81844       58.43359      102.26088
H        -20.86638       57.45080      101.17297
H        -23.04207       58.53822       99.11530
H        -22.09826       58.36930       97.60364
H        -21.66277       57.36861       99.02415
N        -23.88152       61.36035      100.31529
C        -24.40314       62.60123       99.75144
C        -25.92504       62.69412       99.72959
O        -26.41579       63.71017       99.25517
C        -23.82170       62.79702       98.34535
O        -24.22645       61.75419       97.50340
H        -24.33420       60.46695      100.07666
H        -24.06739       63.45640      100.37320
H        -22.71295       62.81272       98.41726
H        -24.16715       63.77255       97.93692
H        -23.86265       61.97311       96.60685
N        -26.74759       61.71654      100.21976
C        -28.20459       61.83864      100.17197
C        -28.68731       63.02762      100.99088
O        -27.91087       63.53857      101.78720
C        -28.84635       60.55848      100.70827
H        -26.34622       60.86251      100.62748
H        -28.48917       61.98504       99.10697
H        -28.55620       59.69348      100.07379
H        -28.51548       60.36679      101.75111
H        -29.94358       60.64886      100.72095
N        -29.92267       63.59404      100.84370
C        -30.96131       63.20287       99.88968
C        -32.31191       63.10592      100.59259
O        -32.56982       63.94407      101.44602
C        -31.05640       64.29570       98.82179
H        -30.10991       64.43754      101.40984
H        -30.71649       62.27350       99.34710
H        -31.30444       65.27847       99.27788
H        -30.08425       64.38668       98.29114
H        -31.83795       64.03978       98.07456
N        -33.30022       62.22855      100.24280
C        -33.22532       61.22225       99.18973
C        -32.35066       60.06653       99.62351
O        -31.40417       59.73831       98.92166
C        -34.65021       60.71656       98.85459
C        -34.66666       59.71633       97.68710
C        -36.07086       59.29681       97.35785
O        -36.42760       58.00143       97.44879
O        -36.89220       60.12427       96.99503
H        -34.20390       62.33752      100.73202
H        -32.83592       61.69291       98.25913
H        -35.26706       61.59789       98.56900
H        -35.11621       60.24753       99.74917
H        -34.07496       58.81531       97.95681
H        -34.21272       60.18081       96.78523
N        -32.63047       59.38624      100.77043
C        -31.84329       58.25889      101.21970
H        -30.79326       58.56591      101.39719
H        -32.25680       57.86748      102.17345
H        -31.86957       57.45023      100.45976
H        -33.43302       59.67681      101.34903
Ca       -20.06579       63.75362      102.68092
O        -22.39102       65.28423      100.46946
H        -21.42348       65.46331      100.38340
H        -22.78921       66.15239      100.72750
O        -20.70335       65.70649      105.03888
H        -19.96699       66.12937      105.54759
H        -21.08913       66.44321      104.50174
O        -23.03664       64.14407      103.34800
H        -23.92440       63.91010      102.97762
H        -23.21773       64.41016      104.28395

Ca 1.0



