%chk=apoCaM-CA-Ng.loop4.water3.frame228.chk
%nprocshared=20
%mem=10GB
%nosave
#b3lyp/svp scf=(tight,noincore,xqc) Test 
#IOP(5/87=12) Density=Current Pop=(MK,readradii) iop(6/33=2) iop(6/42=6)

apoCaM-CA-Ng.loop4.water3.frame228 

   -3  1 
C         34.91036       51.06531      102.31352
C         35.07684       52.20199      103.27764
O         35.41553       51.94638      104.41733
H         34.60158       51.42379      101.30945
H         35.87920       50.53023      102.21098
H         34.14446       50.35956      102.69516
N         34.87449       53.48679      102.87796
C         35.10534       54.66960      103.69980
C         36.63032       54.94138      103.98546
O         37.32093       54.07756      104.84420
C         33.98402       54.97420      104.76004
C         33.33309       53.94617      105.68282
O         33.97350       53.38329      106.71866
O         32.14167       53.71048      105.55360
H         34.58917       53.65025      101.89995
H         34.91654       55.53729      103.02517
H         33.12145       55.32319      104.14391
H         34.29716       55.85575      105.35944
N         37.35200       55.03257      102.69809
C         38.80260       55.34712      102.71285
C         39.06055       56.64868      103.47890
O         39.27087       57.67181      102.84273
C         39.68328       54.12322      103.13691
C         41.19265       54.32121      102.83935
C         39.17222       52.81622      102.49032
C         41.56896       54.34732      101.35020
H         36.88999       55.77473      102.12049
H         39.04133       55.53962      101.64425
H         39.60709       53.98276      104.23305
H         41.74959       53.47572      103.29959
H         41.54458       55.25685      103.32259
H         39.80152       51.95629      102.80216
H         38.13338       52.59409      102.81078
H         39.16666       52.88405      101.38308
H         41.30484       53.39000      100.85351
H         41.07906       55.18400      100.81485
H         42.66721       54.47119      101.25121
N         38.97316       56.69546      104.84032
C         38.80353       57.92845      105.59993
C         40.10089       58.50207      106.17209
O         40.30786       59.69217      105.98170
C         37.72907       57.69968      106.68952
C         37.33980       58.96945      107.39275
O         36.85953       59.89885      106.76305
O         37.49366       59.07765      108.72578
H         38.80632       55.81951      105.34819
H         38.35797       58.69953      104.92904
H         38.07845       56.95873      107.43495
H         36.81344       57.28561      106.21152
N         41.02620       57.79805      106.89120
C         41.00488       56.35790      107.06722
C         42.24988       55.85359      107.77529
O         43.32646       56.31501      107.42220
H         41.83082       58.32505      107.26740
H         41.04208       55.90025      106.05797
H         40.08149       56.04990      107.56816
N         42.25781       54.82846      108.68266
C         41.11346       54.06610      109.16933
C         40.29329       53.48788      108.01522
O         39.12223       53.81900      107.89364
C         40.31517       54.89372      110.20381
C         39.30943       54.05207      110.94709
O         38.01520       54.41323      110.98167
O         39.66987       53.05823      111.55880
H         43.18100       54.51684      109.02494
H         41.51193       53.21206      109.75944
H         39.81575       55.76837      109.74234
H         41.03243       55.27452      110.96267
N         40.80941       52.59749      107.11913
C         42.12723       51.99701      107.22398
C         43.20894       52.77487      106.51660
O         42.94004       53.77918      105.87514
H         40.17812       52.22118      106.39667
H         42.09208       51.00329      106.72514
H         42.38720       51.79919      108.28199
N         44.47525       52.27742      106.54082
C         45.58596       52.80788      105.75796
C         45.87331       51.88247      104.57674
O         46.73614       52.20926      103.77231
C         46.84201       52.91759      106.65283
C         46.71241       53.91785      107.81626
C         46.72134       55.36900      107.39146
N         46.67750       56.34145      108.33078
O         46.79677       55.67803      106.21107
H         44.63748       51.40425      107.06777
H         45.32415       53.79554      105.32219
H         47.73527       53.19541      106.05139
H         47.03512       51.90894      107.08242
H         47.59262       53.77456      108.47978
H         45.79825       53.69834      108.40911
H         46.62830       56.10335      109.33228
H         46.70497       57.33512      108.05767
N         45.17566       50.72181      104.40073
C         45.33685       49.80385      103.28325
C         45.88495       48.46148      103.75123
O         46.69812       47.90076      103.03026
C         44.00163       49.63958      102.50312
C         43.63198       50.94270      101.77897
C         42.82263       49.19614      103.38738
H         44.46882       50.45835      105.09271
H         46.08221       50.19925      102.55490
H         44.15640       48.86289      101.72154
H         43.47542       51.77133      102.50129
H         44.44139       51.22960      101.07426
H         42.70080       50.80354      101.18854
H         41.93022       49.03880      102.74949
H         43.04694       48.24561      103.91270
H         42.55649       49.97162      104.13699
N         45.56127       47.92121      104.96750
C         46.15537       46.68697      105.46878
C         45.08342       45.71615      105.94587
O         45.01469       44.61927      105.40817
C         47.14694       47.01609      106.60457
C         48.27654       47.89971      106.12183
N         49.13599       47.47228      105.16534
O         48.41956       49.01261      106.60606
H         44.92734       48.42606      105.59941
H         46.73583       46.17816      104.66789
H         47.58711       46.07822      107.00740
H         46.60942       47.52976      107.43097
H         49.04458       46.53420      104.74959
H         49.90334       48.07986      104.84086
N         44.24230       46.03076      106.97787
C         43.26931       45.09272      107.54426
C         41.85018       45.62326      107.50912
O         41.66468       46.82977      107.53346
C         43.61683       44.83106      109.02410
C         44.82674       43.95817      109.20099
C         44.77003       42.61960      108.78123
C         45.99007       44.43762      109.82333
C         45.85383       41.76758      108.98923
C         47.07970       43.58269      110.02484
C         47.01276       42.24498      109.61572
O         48.06029       41.42609      109.83648
H         44.32548       46.96039      107.41763
H         43.26590       44.13505      106.98095
H         42.78413       44.29891      109.53312
H         43.73982       45.81123      109.53907
H         43.87468       42.22990      108.31231
H         46.05231       45.46554      110.15893
H         45.78510       40.73479      108.67220
H         47.97213       43.95644      110.51044
H         48.04001       40.49071      109.58748
N         40.81096       44.72869      107.61573
C         39.38144       45.02422      107.76360
C         38.68306       45.51754      106.49932
O         37.65885       44.94277      106.15324
C         39.08110       45.92571      108.97929
C         39.48550       45.23868      110.29592
C         39.10156       46.06355      111.48976
O         40.04467       46.47189      112.35944
O         37.93083       46.34519      111.69317
H         41.06117       43.72890      107.67034
H         38.86951       44.05974      107.99301
H         37.98187       46.09775      109.01388
H         39.57470       46.91470      108.88247
H         40.58043       45.05833      110.30821
H         38.96777       44.25711      110.37791
N         39.12830       46.58104      105.77930
C         38.40209       47.16315      104.65230
C         38.19615       46.21119      103.47624
O         37.48447       46.60044      102.55962
C         39.14960       48.41830      104.13748
C         39.37232       49.53670      105.17605
C         38.09888       50.20776      105.59397
O         37.94529       51.39386      105.36642
O         37.13795       49.52974      106.24768
H         39.99403       47.02925      106.06646
H         37.39227       47.44945      105.01118
H         38.61650       48.85976      103.26664
H         40.14516       48.07465      103.78931
H         40.03244       50.29704      104.70564
H         39.90013       49.17474      106.08032
N         38.76858       44.97345      103.40962
C         38.55569       44.06324      102.30004
H         37.87781       44.48151      101.52574
H         39.52918       43.83203      101.82077
H         38.10543       43.12158      102.67794
H         39.39069       44.64502      104.15975
Ca        36.12482       53.36277      106.54580
O         37.61206       51.27166      108.87800
H         37.92786       50.33512      108.93773
H         37.63903       51.60297      109.81039
O         34.74169       50.79221      107.64469
H         34.35779       50.29988      106.87613
H         34.73425       50.14191      108.39048
O         35.92041       55.03994      109.06573
H         36.26885       55.96532      109.02737
H         36.70379       54.47568      108.84918

Ca 1.0



