%chk=apoCaM-CA-Ng.loop3.water5.frame450.chk
%nprocshared=20
%mem=10GB
%nosave
#b3lyp/svp scf=(tight,noincore,xqc) Test 
#IOP(5/87=12) Density=Current Pop=(MK,readradii) iop(6/33=2) iop(6/42=6)

apoCaM-CA-Ng.loop3.water5.frame450 

   0  1 
C         68.91922       66.34628       97.51043
C         68.39464       64.94046       97.47098
O         67.31098       64.70696       97.98136
H         69.91344       66.42296       97.02167
H         68.21290       67.02719       96.99206
H         69.02536       66.66878       98.56818
N         69.12389       63.94479       96.88959
C         68.73596       62.53723       96.85611
C         68.67573       61.98314       98.27678
O         67.68423       61.38591       98.67346
C         67.44701       62.35255       96.01939
C         67.07127       60.91003       95.82872
O         65.98379       60.50323       96.20611
O         67.92253       60.06406       95.21891
H         70.03195       64.18726       96.46453
H         69.55024       61.98440       96.33695
H         67.60894       62.79645       95.01336
H         66.60502       62.89097       96.49276
N         69.74251       62.18734       99.10712
C         69.84422       61.71338      100.49290
C         68.70373       62.19012      101.38737
O         68.54429       61.62972      102.46252
C         71.25954       62.09004      101.02364
C         71.62986       61.73669      102.48031
C         71.20121       62.76271      103.56249
C         71.79609       64.18053      103.41032
N         73.25840       64.19147      103.48716
H         70.54176       62.70909       98.71451
H         69.76295       60.60355      100.46844
H         71.47688       63.16111      100.84095
H         71.95675       61.51855      100.37115
H         72.73587       61.67235      102.53855
H         71.24693       60.72112      102.71654
H         71.51616       62.36465      104.55104
H         70.10808       62.87862      103.60340
H         71.39592       64.80631      104.23886
H         71.46395       64.65570      102.46361
H         73.57513       63.75835      104.38495
H         73.67863       63.68669      102.67546
H         73.59151       65.18227      103.45811
N         67.81719       63.14294      100.98628
C         66.64463       63.54308      101.76053
C         65.76477       62.33569      102.07774
O         65.87154       61.30628      101.42398
C         65.86623       64.58064      100.91754
C         64.60191       65.13569      101.49685
O         64.61375       65.97193      102.54512
O         63.54441       64.92543      100.93119
H         67.97509       63.60476      100.08500
H         66.99813       63.98832      102.71709
H         65.60503       64.08559       99.95578
H         66.52949       65.44132      100.68226
N         64.89120       62.39540      103.11796
C         64.02003       61.30136      103.51535
C         63.03665       60.95437      102.42668
O         62.90682       59.78757      102.08496
H         64.84980       63.26120      103.67448
H         63.43803       61.62745      104.40411
H         64.61683       60.40913      103.80961
N         62.32488       61.94363      101.82081
C         61.33478       61.71703      100.77381
C         61.84494       62.15071       99.39732
O         61.06242       62.18832       98.45810
C         59.99052       62.36852      101.16896
C         60.00008       63.88019      101.19578
N         59.17897       64.57955      100.38111
O         60.72870       64.48095      101.96953
H         62.52959       62.91133      102.09802
H         61.12091       60.62964      100.68045
H         59.68666       61.99299      102.17087
H         59.22089       62.02519      100.44475
H         58.54151       64.09895       99.73085
H         59.17621       65.60724      100.40641
N         63.17664       62.35821       99.18047
C         63.77497       62.56890       97.87081
C         63.75455       63.99870       97.37271
O         64.42266       64.25894       96.38193
H         63.83471       62.21202       99.95654
H         63.36197       61.85811       97.12231
H         64.85294       62.32395       97.98063
N         63.04950       64.98669       97.98875
C         63.15944       66.38964       97.59676
C         62.05897       67.19914       98.25962
O         61.98475       67.24194       99.47932
C         64.55050       66.94370       97.99289
C         64.64949       68.43948       97.79998
C         64.55716       69.01856       96.52391
C         64.80947       69.27153       98.92081
C         64.61217       70.40998       96.37730
C         64.85415       70.65827       98.77373
C         64.75197       71.23366       97.50055
O         64.77811       72.57294       97.34744
H         62.41590       64.73804       98.76044
H         63.02976       66.47198       96.49485
H         65.35655       66.44098       97.41940
H         64.71232       66.70669       99.06584
H         64.43533       68.39629       95.64657
H         64.88171       68.84747       99.91462
H         64.53243       70.84990       95.39145
H         64.95996       71.28308       99.65176
H         64.84759       73.17436       98.10312
N         61.15065       67.85045       97.48258
C         60.00115       68.57502       98.00122
C         58.81905       67.62156       98.00496
O         58.16389       67.51517       99.03139
C         59.73570       69.86529       97.16612
C         60.94739       70.83839       97.15387
C         58.47472       70.61171       97.64765
C         61.28416       71.48215       98.50596
H         61.21896       67.74214       96.45882
H         60.17599       68.89514       99.04949
H         59.55927       69.55411       96.11215
H         60.73274       71.66286       96.43906
H         61.84283       70.30355       96.77895
H         57.57728       69.98032       97.57161
H         58.55928       70.91327       98.71108
H         58.29892       71.51239       97.02185
H         61.54446       70.71720       99.26031
H         62.15133       72.16311       98.38701
H         60.44261       72.09909       98.88218
N         58.52389       66.84007       96.92084
C         57.41908       65.88156       96.94129
C         56.06719       66.57567       96.91928
O         55.06815       65.93070       97.20753
C         57.52262       64.88842       95.77757
O         57.42851       65.56324       94.55329
H         59.12991       66.88736       96.08897
H         57.50755       65.29149       97.88017
H         56.70328       64.13938       95.85905
H         58.50347       64.36518       95.84916
H         57.60035       64.88273       93.85225
N         55.96568       67.89486       96.59124
C         54.74623       68.68239       96.63275
C         54.15053       68.68215       98.02996
O         52.94788       68.53140       98.18153
C         53.75524       68.23767       95.54939
H         56.81406       68.40191       96.30959
H         55.03134       69.73408       96.40395
H         52.86969       68.90804       95.54349
H         54.24184       68.29453       94.55252
H         53.41331       67.19650       95.72147
N         54.97110       68.83107       99.10925
C         54.49082       68.91118      100.48208
C         55.07635       70.13440      101.15102
O         55.98715       70.73704      100.60068
C         54.91868       67.65613      101.24658
H         55.98670       68.87891       98.95374
H         53.38256       68.98247      100.50071
H         54.49206       66.75474      100.75760
H         56.02704       67.56260      101.25502
H         54.55475       67.69114      102.29527
N         54.59661       70.56352      102.35867
C         55.20077       71.66156      103.11292
C         55.19400       72.99075      102.35611
O         55.76756       73.94436      102.86555
C         56.62959       71.24311      103.54609
C         56.57172       70.00460      104.45881
C         57.93573       69.45957      104.74797
O         58.87178       70.22525      105.33933
O         58.19582       68.30431      104.45523
H         53.79947       70.06815      102.78364
H         54.61943       71.82807      104.04768
H         57.12516       72.06625      104.10637
H         57.25226       71.02547      102.65383
H         55.98056       69.19699      103.97549
H         56.07230       70.27509      105.41402
N         54.55463       73.15376      101.15955
C         54.58878       74.40203      100.43086
H         55.63779       74.65331      100.16514
H         54.00236       74.30599       99.49156
H         54.15067       75.21630      101.04447
H         54.01599       72.38662      100.73684
Ca        62.64291       67.05765      102.77572
O         62.83324       69.90250      101.62642
H         61.95573       70.05211      102.05824
H         62.62539       69.32887      100.84815
O         64.06995       68.23176      104.93032
H         63.17923       68.51305      105.25914
H         64.43814       69.03836      104.48998
O         62.63898       64.56170      104.37891
H         63.26067       64.45283      105.14110
H         61.89631       63.93532      104.56679
O         60.68596       66.70576      104.82551
H         60.69590       67.69349      104.89487
H         60.01294       66.41016      105.48722
O         59.61402       67.74599      102.01465
H         59.93847       68.56305      102.46807
H         59.88508       67.87088      101.07376

Ca 1.0



