%chk=apoCaM-CA-Ng.loop2.water2.frame940.chk
%nprocshared=20
%mem=10GB
%nosave
#b3lyp/svp scf=(tight,noincore,xqc) Test 
#IOP(5/87=12) Density=Current Pop=(MK,readradii) iop(6/33=2) iop(6/42=6)

apoCaM-CA-Ng.loop2.water2.frame940 

   -2  1 
C        -20.06420       85.06296       74.29427
C        -20.25109       85.01838       75.78034
O        -20.50749       83.95199       76.32238
H        -19.04337       85.42931       74.05809
H        -20.19630       84.05360       73.84965
H        -20.81207       85.75097       73.84660
N        -20.14751       86.16278       76.51280
C        -20.35645       86.19747       77.95592
C        -19.26135       85.45543       78.73581
O        -19.39450       85.34632       79.94390
C        -20.46394       87.66952       78.42168
C        -20.92219       87.80409       79.84767
O        -22.00723       87.35897       80.18820
O        -20.14917       88.43587       80.75087
H        -19.96495       87.04538       76.00818
H        -21.33825       85.71202       78.15659
H        -21.21499       88.19371       77.79055
H        -19.48353       88.17660       78.28356
N        -18.14383       84.94529       78.12445
C        -17.07740       84.25413       78.86129
C        -15.86010       83.96427       77.96813
O        -15.97209       84.08005       76.75792
C        -17.61359       82.93326       79.44956
H        -18.02832       85.09882       77.11752
H        -16.74255       84.94837       79.66095
H        -18.44897       83.11177       80.15475
H        -17.98228       82.27869       78.63158
H        -16.84098       82.37057       80.00681
N        -14.62735       83.62412       78.46464
C        -14.27053       83.51968       79.87813
C        -13.32915       84.64436       80.27410
O        -12.92086       85.41358       79.41272
C        -13.71932       82.11460       80.21045
C        -12.43270       81.75984       79.51284
O        -11.34724       81.45227       80.24291
O        -12.37345       81.69213       78.29619
H        -13.87267       83.49602       77.77295
H        -15.16248       83.66980       80.51027
H        -14.48374       81.35393       79.94290
H        -13.55058       82.04792       81.30661
N        -13.04280       84.87301       81.58835
C        -12.36387       86.07733       82.04002
C        -11.30646       85.83741       83.09871
O        -11.52166       86.29133       84.21376
H        -13.45932       84.25716       82.30388
H        -13.14914       86.71754       82.49987
H        -11.92908       86.66616       81.20397
N        -10.10434       85.23271       82.87192
C         -9.67010       84.63787       81.61935
C         -8.59551       85.52150       81.00241
O         -7.51470       85.64821       81.56179
C         -9.12586       83.22613       81.93445
C         -8.62858       82.42652       80.76062
N         -8.01033       81.24510       80.98495
O         -8.78137       82.82317       79.61618
H         -9.42855       85.22338       83.65315
H        -10.52338       84.56060       80.91557
H         -9.91293       82.62948       82.44502
H         -8.27581       83.34115       82.64292
H         -7.86731       80.90047       81.94564
H         -7.65986       80.67831       80.20376
N         -8.86488       86.21585       79.86230
C         -7.94185       87.15110       79.23958
C         -6.87767       86.51275       78.36777
O         -6.15116       87.26540       77.73465
H         -9.81652       86.16479       79.47359
H         -7.49368       87.81960       80.00661
H         -8.53390       87.79273       78.55142
N         -6.72863       85.16153       78.24736
C         -5.79151       84.53732       77.31303
C         -6.56553       83.57870       76.37175
O         -7.71298       84.25318       75.94859
C         -4.66199       83.83018       78.09641
C         -3.77368       84.85727       78.79950
O         -5.19558       82.96140       79.06037
H         -7.31223       84.53899       78.81497
H         -5.32426       85.30672       76.65817
H         -3.98549       83.27614       77.40712
H         -5.31374       82.08561       78.61912
H         -4.35854       85.45875       79.52658
H         -2.95427       84.34009       79.34083
H         -3.31968       85.54053       78.04891
N         -5.77046       83.24456       75.17497
C         -6.27100       82.09474       74.38999
C         -5.62177       80.80571       74.87388
O         -4.40150       80.71252       74.86547
C         -5.97555       82.33329       72.87558
C         -6.41298       81.11561       72.00765
C         -6.69045       83.61963       72.41409
C         -6.09980       81.27038       70.51519
H         -4.74189       83.17429       75.34293
H         -7.37707       82.01451       74.48722
H         -4.87892       82.47500       72.74716
H         -7.50215       80.92757       72.12854
H         -5.86720       80.20968       72.34789
H         -6.37653       84.48869       73.02810
H         -6.43613       83.87159       71.36572
H         -7.79258       83.50244       72.50075
H         -5.01496       81.45456       70.36287
H         -6.37811       80.33801       69.97935
H         -6.68194       82.09638       70.05933
N         -6.39304       79.75237       75.26550
C         -5.86145       78.47825       75.72029
C         -6.20416       77.35550       74.75062
O         -5.69345       76.26167       74.95211
C         -6.41134       78.13910       77.12249
C         -6.22781       79.26468       78.09727
O         -5.47516       79.09912       79.20109
O         -6.79981       80.32612       77.90884
H         -7.40776       79.84873       75.23918
H         -4.75200       78.53773       75.77721
H         -5.90250       77.22722       77.50433
H         -7.50199       77.92909       77.06129
N         -7.05732       77.52528       73.68770
C         -7.31263       76.45819       72.72617
C         -8.45417       76.82322       71.75608
O         -8.36457       77.87887       71.14305
C         -6.03562       76.21538       71.88326
C         -6.20200       75.02086       70.97941
C         -6.42954       75.19114       69.60417
C         -6.14556       73.72236       71.51341
C         -6.61228       74.07754       68.77926
C         -6.31530       72.61140       70.68288
C         -6.55312       72.78888       69.31746
H         -7.54324       78.42191       73.55394
H         -7.56056       75.54900       73.30463
H         -5.13084       76.05159       72.50568
H         -5.84158       77.13479       71.28680
H         -6.48679       76.18394       69.17564
H         -5.96626       73.57294       72.57131
H         -6.80332       74.21405       67.72306
H         -6.26630       71.61344       71.09890
H         -6.69289       71.92807       68.67698
N         -9.50637       75.97737       71.48022
C        -10.44396       76.19011       70.37111
C        -11.42386       77.34791       70.47492
O        -12.21277       77.51029       69.55352
C        -11.24011       74.88172       70.30942
C        -10.22311       73.87602       70.79263
C         -9.63065       74.61953       71.97997
H         -9.83269       76.29835       69.44632
H        -12.05230       74.90352       71.07421
H        -11.69305       74.66880       69.31769
H        -10.63609       72.87531       71.03739
H         -9.43832       73.76626       70.00899
H        -10.34621       74.61893       72.83218
H         -8.68952       74.12006       72.26533
N        -11.47345       78.16854       71.55804
C        -12.47789       79.22843       71.70970
C        -12.44017       80.28703       70.60974
O        -13.36703       81.08402       70.54918
C        -12.31159       79.90311       73.08812
C        -10.97381       80.64855       73.14888
C        -10.57039       80.98929       74.53577
O         -9.56514       80.48240       74.98957
O        -11.17859       81.94323       75.24803
H        -10.81802       77.98548       72.33026
H        -13.47388       78.73411       71.67400
H        -12.33162       79.09804       73.85598
H        -13.14116       80.60980       73.31130
H        -10.99443       81.56759       72.52321
H        -10.16372       80.00988       72.74061
N        -11.40241       80.38932       69.73098
C        -11.37898       81.39411       68.69030
H        -10.43478       81.31741       68.11048
H        -12.23469       81.24016       67.99897
H        -11.44043       82.40962       69.13673
H        -10.59219       79.75840       69.80257
Ca        -9.52336       82.95299       76.36596
O        -10.82285       85.24980       77.36365
H        -11.30889       85.01292       76.53499
H        -10.96393       84.47567       77.96645
O        -10.60001       79.23021       77.61552
H        -10.23979       78.36602       77.29372
H        -11.50190       79.01006       77.95999

Ca 1.0



