%chk=apoCaM-CA-Ng.loop1.water2.frame916.chk
%nprocshared=20
%mem=10GB
%nosave
#b3lyp/svp scf=(tight,noincore,xqc) Test 
#IOP(5/87=12) Density=Current Pop=(MK,readradii) iop(6/33=2) iop(6/42=6)

apoCaM-CA-Ng.loop1.water2.frame916 

   0  1 
C         17.60476       28.04805       32.76624
C         18.74058       27.07842       32.91575
O         19.87871       27.46439       32.69237
H         16.63193       27.57628       33.02120
H         17.76419       28.90888       33.44899
H         17.55780       28.41391       31.71988
N         18.50029       25.79430       33.29897
C         19.54260       24.79692       33.50375
C         19.38144       23.67017       32.48997
O         18.34245       23.03365       32.44651
C         19.59180       24.33165       34.99410
C         18.43559       24.76559       35.89081
O         17.19558       24.23855       35.80332
O         18.64341       25.60780       36.75027
H         17.52372       25.50261       33.45940
H         20.54394       25.23691       33.29867
H         20.48170       24.84666       35.42443
H         19.82358       23.24834       35.08487
N         20.37878       23.41158       31.59116
C         20.27295       22.41657       30.52703
C         20.15929       21.00901       31.08958
O         21.00744       20.60479       31.87317
C         21.48872       22.51658       29.57335
C         21.30458       21.63302       28.32153
C         22.40633       21.81675       27.26514
C         23.78731       21.33126       27.72894
N         24.77058       21.46628       26.65326
H         21.23695       23.98287       31.63268
H         19.37610       22.66346       29.91604
H         22.42092       22.25145       30.11656
H         21.57059       23.57151       29.22991
H         20.34482       21.92034       27.83828
H         21.23912       20.56021       28.60438
H         22.46069       22.88641       26.96514
H         22.11488       21.22374       26.37052
H         23.71913       20.26131       28.02648
H         24.12823       21.92164       28.60574
H         25.69808       21.12009       26.98936
H         24.47982       20.89733       25.82473
H         24.86420       22.47002       26.37415
N         19.16016       20.18434       30.66385
C         19.02265       18.79389       31.10612
C         18.10589       17.97724       30.19686
O         17.45328       18.54667       29.33496
C         18.56539       18.72884       32.58823
C         17.49982       19.71712       32.92629
O         16.41127       19.71982       32.37359
O         17.80883       20.62763       33.85873
H         18.51504       20.55411       29.95074
H         20.01472       18.30678       30.98197
H         19.44487       18.96858       33.22327
H         18.19902       17.73438       32.90204
N         18.05102       16.60899       30.26078
C         18.81803       15.79139       31.19393
C         19.86931       14.98016       30.50470
O         20.63064       15.53706       29.72598
H         17.44711       16.11723       29.58644
H         18.12936       15.16172       31.79761
H         19.41249       16.38716       31.89639
N         20.06886       13.68183       30.85899
C         21.17256       12.89578       30.32902
C         20.92187       12.60368       28.86540
O         19.93178       11.95416       28.55519
C         21.32948       11.59273       31.14670
C         22.51027       10.74189       30.75103
O         22.74458        9.59552       31.41688
O         23.26450       11.07489       29.85016
H         19.46424       13.27177       31.58839
H         22.11385       13.47641       30.46617
H         20.40335       10.98478       31.06274
H         21.46730       11.86706       32.21637
N         21.78025       13.05182       27.90414
C         21.58198       12.75876       26.49377
C         20.33956       13.40034       25.90393
O         20.00102       13.05882       24.78023
H         22.62044       13.58202       28.18112
H         21.51247       11.65474       26.38320
H         22.45778       13.10604       25.90502
N         19.62301       14.34559       26.57921
C         18.39180       14.94869       26.07840
C         17.27359       14.65612       27.06704
O         17.53180       14.04913       28.09967
C         18.60682       16.47114       25.87161
C         19.74852       16.73292       24.88325
O         17.44093       17.06442       25.36237
H         19.95385       14.66893       27.49629
H         18.10238       14.49742       25.10378
H         18.86094       16.92453       26.85911
H         17.49447       18.03545       25.56107
H         20.70477       16.31677       25.26228
H         19.51617       16.27167       23.89894
H         19.88013       17.82612       24.74151
N         15.98904       15.03141       26.80964
C         14.90153       14.72585       27.72969
C         14.75177       13.21399       27.75318
O         14.89236       12.60909       28.80683
C         13.57603       15.45993       27.34326
C         13.76931       16.98042       27.05349
C         12.52348       15.26904       28.45290
C         14.48386       17.76800       28.15307
H         15.77925       15.51269       25.92836
H         15.18238       15.09855       28.74122
H         13.16576       15.01956       26.40860
H         12.77924       17.44623       26.85747
H         14.35642       17.11561       26.12288
H         12.87513       15.69578       29.41646
H         11.57335       15.77330       28.17432
H         12.30557       14.19292       28.61108
H         14.58688       18.82853       27.83861
H         13.92618       17.73801       29.10948
H         15.50312       17.36347       28.30429
N         14.56565       12.54356       26.57867
C         14.58985       11.09088       26.44584
C         13.27331       10.59903       25.89287
O         12.64319       11.30958       25.11973
C         15.73045       10.66817       25.48803
C         17.10491       11.10304       26.00235
O         15.72365        9.27124       25.33743
H         14.46184       13.09533       25.71252
H         14.76509       10.60496       27.43199
H         15.54654       11.15551       24.49986
H         16.15648        9.07339       24.46570
H         17.31642       10.64464       26.99152
H         17.89266       10.79060       25.28476
H         17.15117       12.20224       26.09197
N         12.80248        9.36990       26.24841
C         11.53087        8.84178       25.77391
C         10.52277        8.72771       26.89951
O          9.38525        8.39524       26.60127
C         11.71518        7.47580       25.05958
C         12.17920        6.34932       25.99467
O         12.63744        7.60269       24.00866
H         13.36024        8.80065       26.90358
H         11.08465        9.54215       25.03400
H         10.72821        7.14733       24.65317
H         12.13964        7.96259       23.22880
H         13.17651        6.56517       26.42780
H         11.45106        6.19703       26.81975
H         12.24604        5.39737       25.42609
N         10.84188        8.99900       28.20540
C          9.85257        8.87548       29.27158
C         10.35898        9.38284       30.61295
O         11.55440        9.54746       30.80950
C          9.42784        7.38685       29.44265
C         10.57743        6.52160       30.00420
C         10.23673        5.02972       30.01175
C         11.33832        4.23562       30.73108
N         11.08338        2.79803       30.66482
H         11.78880        9.32023       28.44152
H          8.98513        9.50732       28.97959
H          9.09321        6.96781       28.47418
H          8.56421        7.31503       30.13848
H         10.78871        6.84743       31.04638
H         11.49830        6.66212       29.39667
H         10.14169        4.68294       28.95915
H          9.27199        4.85841       30.53648
H         11.37542        4.55465       31.79770
H         12.32809        4.44910       30.26956
H         11.12298        2.47795       29.66985
H         11.82111        2.29572       31.20994
H         10.14712        2.57428       31.07306
N          9.45820        9.57400       31.61504
C          9.82455        9.81529       33.00265
C         10.79956       10.98189       33.17559
O         11.84757       10.74612       33.76088
C          8.54483        9.94983       33.87037
C          8.79739        9.84113       35.38426
C          9.18635        8.45412       35.84376
O          9.26767        7.51894       35.06144
O          9.40318        8.23277       37.15329
H          8.45838        9.47036       31.38431
H         10.35177        8.89805       33.34126
H          7.81639        9.15220       33.60367
H          8.04758       10.91117       33.65735
H          7.85082       10.09398       35.90834
H          9.57039       10.57614       35.69155
N         10.60546       12.24588       32.69499
C          9.46952       12.68341       31.91321
H          8.53534       12.63140       32.49740
H          9.61245       13.74562       31.61996
H          9.38512       12.08767       30.98246
H         11.34707       12.94386       32.86508
Ca        16.76200       22.46327       34.53627
O         13.65758       21.04352       33.31872
H         13.31734       20.70238       32.45356
H         13.36395       21.98877       33.34559
O         15.08335       23.53086       31.54857
H         14.65541       24.39581       31.32640
H         15.44231       23.20231       30.68620

Ca 1.0



