%chk=apoCaM-CA-Ng.loop3.water6.frame471.chk
%nprocshared=20
%mem=10GB
%nosave
#b3lyp/svp scf=(tight,noincore,xqc) Test 
#IOP(5/87=12) Density=Current Pop=(MK,readradii) iop(6/33=2) iop(6/42=6)

apoCaM-CA-Ng.loop3.water6.frame471 

   0  1 
C         48.26354       39.66824      117.03331
C         47.24546       39.48688      118.12091
O         46.46975       40.39544      118.37853
H         49.28389       39.55374      117.45780
H         48.11208       38.89690      116.24875
H         48.17966       40.67448      116.57100
N         47.21017       38.31567      118.81413
C         46.29231       38.01056      119.90617
C         46.49733       38.96526      121.07812
O         45.53930       39.51122      121.60763
C         44.83630       37.93992      119.38654
C         43.87039       37.46011      120.43484
O         44.03019       36.24780      120.99885
O         42.93037       38.16280      120.77117
H         47.89530       37.58533      118.56275
H         46.56487       36.99603      120.27550
H         44.79357       37.22532      118.53644
H         44.51600       38.93614      119.01326
N         47.75852       39.21522      121.52514
C         48.06564       40.04471      122.68598
C         48.51484       41.44713      122.29096
O         48.88780       42.20856      123.17337
C         49.14269       39.33123      123.52545
C         48.62732       38.00572      124.12032
C         49.69144       37.31111      124.98456
C         50.82311       36.68383      124.15229
N         51.86900       36.14678      125.02166
H         48.55216       38.81320      121.00133
H         47.16562       40.19462      123.32249
H         49.44081       39.98536      124.37373
H         50.03587       39.16698      122.88691
H         48.27119       37.30783      123.33089
H         47.76339       38.25371      124.77498
H         49.20689       36.49303      125.56129
H         50.09916       38.04711      125.71116
H         51.28533       37.42891      123.47363
H         50.39800       35.86514      123.52800
H         52.59052       35.66790      124.43575
H         52.32670       36.93138      125.54120
H         51.46850       35.46054      125.70127
N         48.44142       41.88770      121.00257
C         48.79452       43.24345      120.58945
C         47.92619       44.25813      121.33557
O         46.71035       44.14082      121.29300
C         48.61285       43.35894      119.05602
C         49.23531       44.59293      118.46266
O         50.11630       44.48716      117.62454
O         48.82451       45.81535      118.82582
H         48.10051       41.24103      120.27951
H         49.87228       43.40650      120.81469
H         47.53251       43.31097      118.80007
H         49.11374       42.48742      118.57872
N         48.49543       45.26398      122.06262
C         47.76489       46.24625      122.86499
C         46.88986       47.23926      122.10381
O         46.36744       48.13915      122.74578
H         49.52381       45.31144      122.09621
H         48.51855       46.85513      123.41150
H         47.14684       45.72125      123.62530
N         46.65757       47.14257      120.76658
C         45.82135       48.05511      119.99526
C         44.55202       47.35151      119.53026
O         43.80756       47.96664      118.78052
C         46.59836       48.51638      118.73162
C         47.80184       49.43466      118.94400
N         47.41646       50.78460      119.33415
O         48.73620       48.89391      119.82735
H         47.05140       46.35626      120.24952
H         45.50214       48.93936      120.58770
H         45.92243       49.05732      118.03569
H         46.95990       47.61190      118.21102
H         47.02300       50.78209      120.30047
H         48.26928       51.38860      119.31033
N         44.21921       46.07787      119.90649
C         43.07342       45.38874      119.32945
C         43.29222       45.08168      117.85232
O         42.33895       44.74301      117.16857
H         44.78590       45.56893      120.59641
H         42.17368       46.02626      119.47031
H         42.89438       44.42528      119.85413
N         44.54383       45.14284      117.31345
C         44.89536       44.91796      115.91788
C         45.61542       46.15741      115.42526
O         46.51784       46.62001      116.10225
C         45.80951       43.68133      115.83070
C         46.50519       43.58994      114.49252
C         45.78169       43.51958      113.28944
C         47.90854       43.62242      114.44933
C         46.45782       43.49707      112.06457
C         48.57954       43.59509      113.22815
C         47.85661       43.53740      112.02979
O         48.49552       43.52731      110.84321
H         45.33748       45.35365      117.93522
H         44.00232       44.73309      115.28095
H         45.20894       42.76675      116.02794
H         46.57995       43.75209      116.62760
H         44.69903       43.50355      113.29661
H         48.48658       43.68114      115.36317
H         45.89419       43.45965      111.14099
H         49.66130       43.62831      113.21734
H         49.46077       43.56932      110.78177
N         45.28817       46.74648      114.24196
C         45.84162       48.04194      113.86725
C         45.19061       49.06225      114.77930
O         45.89708       49.81655      115.43248
C         45.62802       48.36622      112.35979
C         46.25706       47.29103      111.42612
C         46.20127       49.75662      112.01009
C         47.77808       47.11069      111.55055
H         44.58101       46.30467      113.63583
H         46.94094       48.04892      114.02553
H         44.53655       48.38846      112.14798
H         46.03250       47.56481      110.37202
H         45.77840       46.30906      111.61607
H         45.69214       50.55065      112.58360
H         47.28439       49.82317      112.24478
H         46.05286       49.97952      110.93241
H         48.06442       46.76439      112.56437
H         48.11522       46.34103      110.82554
H         48.32156       48.04762      111.31262
N         43.83267       49.06378      114.94329
C         43.15854       49.93698      115.89655
C         43.15595       51.38124      115.43675
O         42.89061       52.25102      116.25364
C         41.71093       49.48114      116.13136
O         41.67853       48.13922      116.54343
H         43.27466       48.36334      114.43064
H         43.70186       49.85938      116.86512
H         41.12649       49.57073      115.19120
H         41.21621       50.13711      116.88629
H         41.61201       48.13655      117.53279
N         43.43625       51.70991      114.14049
C         43.54041       53.07142      113.63726
C         44.63649       53.79723      114.39339
O         44.42564       54.89131      114.89981
C         42.17900       53.78243      113.67681
H         43.62296       50.96114      113.46043
H         43.85151       53.01101      112.57009
H         42.25871       54.79074      113.21959
H         41.43366       53.19392      113.09953
H         41.80646       53.89534      114.71564
N         45.83353       53.17086      114.56228
C         46.93612       53.69614      115.34654
C         48.20904       53.59747      114.54257
O         48.53045       52.50933      114.08218
C         47.07676       52.87002      116.62532
H         45.94650       52.22404      114.17108
H         46.74578       54.74694      115.65805
H         47.28110       51.80409      116.39382
H         47.90939       53.26720      117.24401
H         46.13738       52.93261      117.21556
N         48.99509       54.69165      114.34312
C         50.23818       54.66655      113.58136
C         49.93507       54.29834      112.14087
O         50.48369       53.33799      111.61618
C         51.29103       53.73539      114.24197
C         51.59426       54.15301      115.68933
C         52.59848       53.23555      116.32645
O         52.27307       52.55031      117.43933
O         53.71691       53.11796      115.85181
H         48.70381       55.59416      114.74864
H         50.66316       55.69495      113.57257
H         52.23116       53.77773      113.64875
H         50.94167       52.68148      114.23853
H         50.65957       54.12363      116.29037
H         51.99184       55.19007      115.70364
N         49.03020       55.03759      111.44296
C         48.66834       54.73288      110.07710
H         47.90039       55.45316      109.72243
H         49.56090       54.80938      109.42152
H         48.24573       53.70725      110.01690
H         48.56989       55.83836      111.90234
Ca        50.40253       48.17538      118.44703
O         53.26837       48.81526      118.79659
H         53.50801       48.28014      119.59422
H         53.38176       49.75562      119.08432
O         51.13876       49.92838      115.96077
H         51.16539       50.20708      116.90986
H         50.23724       50.19716      115.65261
O         52.53647       46.70405      116.23157
H         53.39722       46.57494      116.70382
H         52.69085       46.32909      115.32824
O         52.52544       45.28877      119.19516
H         52.93508       44.49799      118.76249
H         53.27719       45.73587      119.65827
O         49.21431       47.47365      115.75417
H         49.14356       46.51689      115.51004
H         49.22009       47.95168      114.88764
O         50.96386       47.29919      121.15439
H         51.06003       48.18976      121.57544
H         51.57190       46.71065      121.66721

Ca 1.0



