%chk=apoCaM-CA-Ng.loop2.water5.frame1498.chk
%nprocshared=20
%mem=10GB
%nosave
#b3lyp/svp scf=(tight,noincore,xqc) Test 
#IOP(5/87=12) Density=Current Pop=(MK,readradii) iop(6/33=2) iop(6/42=6)

apoCaM-CA-Ng.loop2.water5.frame1498 

   -2  1 
C         67.60757      107.36565       51.51829
C         67.35804      106.68939       52.83803
O         66.48505      107.13989       53.56522
H         68.64181      107.75650       51.46712
H         67.43259      106.64695       50.69035
H         66.91304      108.22199       51.38528
N         68.04125      105.57909       53.23602
C         69.09702      104.93766       52.45803
C         70.31891      105.84057       52.29717
O         70.66847      106.12544       51.15958
C         69.40741      103.51024       52.99530
C         69.56281      103.34862       54.48764
O         68.67580      102.59565       55.16564
O         70.47964      103.86424       55.09381
H         67.75925      105.15529       54.13329
H         68.71378      104.74327       51.43028
H         70.28533      103.08398       52.46197
H         68.52955      102.88223       52.72550
N         71.01812      106.32752       53.36133
C         72.20708      107.17268       53.22501
C         73.47791      106.43628       53.63747
O         74.55562      107.00221       53.51750
C         72.02197      108.43360       54.07571
H         70.71055      106.08191       54.30950
H         72.34951      107.47703       52.16599
H         72.89476      109.11244       53.97182
H         71.10846      108.97877       53.75780
H         71.91446      108.15941       55.14862
N         73.41930      105.17539       54.14384
C         74.55240      104.39299       54.60335
C         74.56081      103.01533       53.94552
O         75.61161      102.59874       53.47746
C         74.52402      104.32698       56.15074
C         73.22902      103.84513       56.75691
O         72.47622      104.67644       57.49574
O         72.84282      102.70266       56.59740
H         72.50398      104.75013       54.27472
H         75.51770      104.89312       54.35849
H         74.68758      105.36518       56.51518
H         75.37051      103.70867       56.52195
N         73.43222      102.24408       53.87510
C         73.41682      100.88136       53.37418
C         74.03960       99.89855       54.35061
O         74.07825       98.71901       54.03236
H         72.52982      102.61927       54.18531
H         73.91107      100.83971       52.37917
H         72.35984      100.56153       53.24151
N         74.52850      100.30145       55.56113
C         75.16000       99.43223       56.53322
C         74.35927       99.49693       57.83729
O         74.82874      100.04794       58.82206
C         76.63727       99.89055       56.64409
C         77.57933       98.87188       57.25257
N         77.51269       98.49891       58.55077
O         78.44677       98.38361       56.54236
H         74.50697      101.28929       55.82025
H         75.17478       98.38073       56.17042
H         76.71667      100.87644       57.15153
H         76.99563      100.04063       55.59893
H         76.82414       98.89496       59.19738
H         78.18186       97.80878       58.92251
N         73.12489       98.91701       57.91107
C         72.36058       98.81598       59.15222
C         71.72358      100.11702       59.61699
O         71.85021      101.11707       58.92655
H         72.76113       98.42617       57.08026
H         73.03140       98.40497       59.93663
H         71.52437       98.10112       58.99470
N         70.99529      100.20330       60.77882
C         70.84455       99.11201       61.74813
C         69.39567       98.66252       61.97388
O         69.22311       97.63666       62.61870
C         71.48000       99.53319       63.09997
C         72.96914       99.87537       62.94953
O         70.79474      100.64722       63.61609
H         70.57791      101.11721       61.01702
H         71.37530       98.20954       61.39165
H         71.38836       98.67715       63.80880
H         71.02820      100.71278       64.57927
H         73.11219      100.73987       62.26650
H         73.39633      100.14509       63.93930
H         73.52792       99.00236       62.55267
N         68.31253       99.37579       61.54260
C         66.92012       98.98308       61.80433
C         66.12197       99.04612       60.49629
O         66.18591      100.08388       59.85152
C         66.30144       99.93425       62.88084
C         67.06867       99.77802       64.22520
C         64.80275       99.62757       63.08866
C         66.57614      100.69139       65.35035
H         68.46813      100.27784       61.07048
H         66.86754       97.96860       62.24223
H         66.39007      100.98466       62.52441
H         68.14041      100.01387       64.06632
H         66.99562       98.72413       64.57590
H         64.33405      100.35221       63.78294
H         64.24859       99.71898       62.13585
H         64.65806       98.60301       63.49010
H         66.65428      101.75560       65.04625
H         65.53044      100.46061       65.63795
H         67.20359      100.52983       66.25262
N         65.27839       98.06008       60.04571
C         64.98462       96.80301       60.73645
C         63.61414       96.22624       60.35003
O         63.18014       96.36758       59.21670
C         66.10666       95.76483       60.52281
C         66.33174       95.42440       59.07292
O         67.52868       95.66788       58.50600
O         65.44745       94.90792       58.40877
H         64.74274       98.27312       59.19029
H         64.90398       97.01338       61.82060
H         65.85989       94.83462       61.08005
H         67.05802       96.15775       60.93465
N         62.88576       95.55052       61.28961
C         61.58300       94.92173       61.05998
C         60.52674       95.54980       61.95537
O         60.79997       95.72768       63.13240
C         61.63493       93.43460       61.45613
C         62.38384       92.57002       60.48530
C         61.73998       92.10995       59.32243
C         63.69688       92.16223       60.75582
C         62.40230       91.24530       58.44768
C         64.36119       91.30835       59.87069
C         63.71295       90.84551       58.72109
H         63.28207       95.46760       62.23790
H         61.28231       94.97874       60.00093
H         60.60256       93.01686       61.51194
H         62.05132       93.33626       62.48271
H         60.71753       92.39976       59.10786
H         64.20221       92.50483       61.64986
H         61.89603       90.87828       57.56372
H         65.37514       90.99723       60.08207
H         64.22378       90.17279       58.04508
N         59.24602       95.78500       61.51729
C         58.72790       95.52166       60.18091
C         59.36373       96.41395       59.14401
O         59.80137       95.93209       58.11056
C         57.22703       95.82150       60.29940
C         56.96263       95.48362       61.75279
C         58.16733       96.13723       62.41827
H         58.86017       94.44048       59.94433
H         57.03808       96.91443       60.19605
H         56.59768       95.28730       59.55533
H         55.97938       95.82403       62.13940
H         57.04215       94.37876       61.87919
H         58.04952       97.24419       62.41974
H         58.30060       95.76142       63.45480
N         59.49861       97.74160       59.41078
C         60.16216       98.66743       58.51167
C         59.18558       99.03674       57.40196
O         58.19191       99.67393       57.72348
C         60.59391       99.92723       59.30099
C         61.60568       99.57804       60.41251
C         61.88912      100.76547       61.28372
O         62.38209      101.77708       60.81231
O         61.60963      100.71107       62.60102
H         59.16943       98.08926       60.32345
H         61.10108       98.20880       58.15512
H         59.69312      100.38992       59.76309
H         61.05696      100.66918       58.61401
H         62.55100       99.21066       59.96007
H         61.20730       98.77227       61.06483
N         59.32115       98.68482       56.08827
C         60.36414       97.86210       55.50864
H         61.11649       97.50034       56.22498
H         59.89430       96.96642       55.04891
H         60.88471       98.43450       54.71427
H         58.58928       99.00297       55.43358
Ca        70.51836      103.81508       58.21953
O         68.27219      105.42674       59.29830
H         68.79601      106.26694       59.29712
H         68.63264      104.91271       60.06408
O         69.77033      106.24962       56.73336
H         70.51495      106.86724       56.94325
H         69.13533      106.78968       56.20019
O         70.28978      100.48899       56.49555
H         69.42636      100.05086       56.28869
H         70.96065       99.97265       55.98293
O         67.90746      102.24850       58.29764
H         68.04818      101.29292       58.08149
H         68.02218      102.29950       59.27977
O         72.05735      104.30983       60.66072
H         71.72221      105.23554       60.55213
H         71.29466      103.81472       61.05306

Ca 1.0



