%chk=apoCaM-CA-Ng.loop1.water3.frame187.chk
%nprocshared=20
%mem=10GB
%nosave
#b3lyp/svp scf=(tight,noincore,xqc) Test 
#IOP(5/87=12) Density=Current Pop=(MK,readradii) iop(6/33=2) iop(6/42=6)

apoCaM-CA-Ng.loop1.water3.frame187 

   0  1 
C        116.11130       37.43102       15.84887
C        116.28307       38.54454       14.85336
O        116.79764       38.29831       13.77196
H        115.46607       36.63852       15.41414
H        117.10038       36.99718       16.10273
H        115.63454       37.79096       16.78572
N        115.84786       39.80239       15.14456
C        115.91811       40.91440       14.19844
C        117.33467       41.42145       13.91480
O        117.44590       42.35422       13.13112
C        115.04567       42.09636       14.68846
C        115.59667       42.80987       15.89289
O        115.88426       43.99206       15.80685
O        115.76334       42.17072       17.06563
H        115.37171       39.94557       16.04733
H        115.45998       40.56867       13.24430
H        114.01568       41.73850       14.90283
H        114.97376       42.84214       13.86948
N        118.45129       40.89688       14.50610
C        119.78796       41.46181       14.32839
C        120.68622       40.53131       13.52767
O        120.75616       39.36483       13.89011
C        120.48600       41.65759       15.69601
C        119.86179       42.65440       16.67980
C        119.81743       44.09202       16.13919
C        119.58214       45.13835       17.24472
N        118.33809       44.92752       17.98275
H        118.36655       40.08098       15.12729
H        119.72002       42.43427       13.83072
H        121.52725       42.00092       15.51140
H        120.55613       40.67307       16.20991
H        120.52109       42.64096       17.57636
H        118.84810       42.32002       16.98485
H        119.03993       44.16987       15.34896
H        120.80136       44.34367       15.69009
H        119.56416       46.14641       16.77403
H        120.43551       45.11342       17.95884
H        118.36233       44.01773       18.49640
H        118.22893       45.69411       18.68509
H        117.52649       44.95571       17.33089
N        121.50940       40.94197       12.50766
C        121.62237       42.27408       11.90731
C        121.82898       43.40051       12.92152
O        120.98930       44.28803       12.96869
C        120.41862       42.56741       10.97040
C        120.31210       41.64003        9.78853
O        121.18274       40.62855        9.60758
O        119.43257       41.82486        8.96270
H        122.15013       40.23063       12.12140
H        122.51468       42.28379       11.24817
H        120.54500       43.58801       10.54957
H        119.46628       42.54417       11.53462
N        122.90457       43.51449       13.74973
C        124.04202       42.60488       13.80391
C        125.14182       43.13682       14.73512
O        124.96184       44.18840       15.33350
H        122.90259       44.34856       14.35527
H        124.47692       42.52834       12.78408
H        123.70236       41.60124       14.13606
N        126.35539       42.53001       14.88403
C        126.75218       41.28645       14.24588
C        127.66531       41.59963       13.08254
O        128.75013       42.12985       13.27956
C        127.40367       40.30388       15.25064
C        128.70001       40.78568       15.86257
O        129.84164       40.10984       15.63019
O        128.72636       41.76824       16.58587
H        127.06024       43.03658       15.43826
H        125.85290       40.77159       13.85050
H        127.61274       39.35614       14.70808
H        126.68702       40.07663       16.06846
N        127.23939       41.34184       11.81825
C        128.00575       41.64649       10.62744
C        127.33847       42.76387        9.86217
O        127.99161       43.75547        9.56981
H        126.30217       40.93314       11.68635
H        128.05842       40.72944       10.00122
H        129.04962       41.94327       10.86999
N        126.02869       42.66780        9.50060
C        125.33853       43.67999        8.70559
C        125.28734       45.02123        9.43021
O        124.73344       45.09617       10.51906
C        123.89332       43.23497        8.35959
C        123.85040       41.90960        7.58611
O        123.28978       44.22708        7.57063
H        125.51457       41.82300        9.78489
H        125.88581       43.79493        7.74402
H        123.32841       43.11867        9.31077
H        122.30801       44.11494        7.66392
H        124.42312       41.99875        6.63952
H        124.26083       41.06640        8.17595
H        122.79642       41.65685        7.34532
N        125.82094       46.13574        8.84732
C        125.73601       47.47565        9.43489
C        124.28507       47.94538        9.52993
O        124.02409       48.82799       10.33753
C        126.58592       48.50272        8.59835
C        128.09210       48.12134        8.65508
C        126.38751       49.96541        9.06379
C        128.99154       48.99287        7.77168
H        126.28892       46.02388        7.93612
H        126.15346       47.43115       10.46674
H        126.23858       48.45167        7.54168
H        128.22795       47.07731        8.30748
H        128.45498       48.18026        9.70447
H        126.70114       50.09161       10.12120
H        126.95012       50.67497        8.42730
H        125.33329       50.28687        8.94849
H        130.03524       48.61925        7.82728
H        128.65333       48.94949        6.71476
H        129.00903       50.04760        8.11159
N        123.30237       47.45438        8.71589
C        121.94795       48.00756        8.69294
C        120.91947       47.02249        9.21602
O        121.23983       45.86201        9.43434
C        121.60048       48.54210        7.28035
C        121.60431       47.45033        6.19716
O        122.52503       49.54227        6.93587
H        123.52971       46.69591        8.06169
H        121.89213       48.87294        9.38913
H        120.57958       48.98664        7.33027
H        122.11443       50.08063        6.20939
H        122.61404       47.00964        6.06615
H        120.88451       46.64375        6.44764
H        121.30772       47.89160        5.22216
N        119.67514       47.47590        9.55100
C        118.68418       46.67508       10.26785
C        117.27180       46.93871        9.73950
O        117.11436       47.69695        8.79103
C        118.79764       46.99367       11.78808
C        118.36590       48.42158       12.15162
O        120.12638       46.79498       12.19625
H        119.48922       48.48562        9.44331
H        118.90838       45.59095       10.15393
H        118.14638       46.28240       12.34345
H        120.12419       46.75097       13.18831
H        119.00287       49.17367       11.64364
H        117.30463       48.59293       11.87896
H        118.45885       48.56652       13.24907
N        116.18773       46.40136       10.37245
C        114.80109       46.72886       10.04369
C        113.93748       45.47617        9.90457
O        112.72399       45.56484       10.03217
C        114.24964       47.71745       11.09966
C        114.27884       47.20104       12.54825
C        113.72349       48.26874       13.50462
C        113.70467       47.82194       14.97617
N        115.04943       47.60670       15.51555
H        116.34563       45.79522       11.19011
H        114.73475       47.28023        9.07995
H        113.20831       47.99649       10.82565
H        114.86423       48.64416       11.04994
H        115.32580       46.97255       12.82845
H        113.66812       46.27661       12.63129
H        112.67731       48.49754       13.20480
H        114.31998       49.20393       13.41753
H        113.09961       46.89492       15.08388
H        113.21071       48.62380       15.56902
H        115.51926       46.80384       15.04162
H        115.62483       48.47350       15.40675
H        114.97278       47.38145       16.53367
N        114.49900       44.27977        9.57810
C        113.74558       43.03567        9.42522
C        113.19041       42.58953       10.76013
O        113.96296       42.41457       11.68950
C        114.68339       41.93363        8.89484
C        115.12177       42.21151        7.44966
C        116.25343       41.30504        7.07100
O        116.12198       39.96799        7.14483
O        117.32287       41.78453        6.73201
H        115.51577       44.25424        9.41308
H        112.91847       43.17010        8.69204
H        114.17703       40.94228        8.91531
H        115.57060       41.88237        9.56636
H        115.47149       43.26007        7.33875
H        114.25614       42.06619        6.76668
N        111.86193       42.34234       10.92096
C        111.32195       41.86184       12.17566
H        110.22816       41.69399       12.08068
H        111.80265       40.89757       12.45048
H        111.50379       42.60550       12.98004
H        111.21649       42.47265       10.12756
Ca       117.95864       38.69957        6.78050
O        121.24381       38.73792        7.03167
H        121.96013       38.45007        7.65179
H        121.72234       39.19294        6.29389
O        119.96406       41.53288        5.39810
H        119.70929       42.42440        5.05020
H        119.44908       40.89412        4.84345
O        117.82783       39.56132       10.44936
H        117.67416       40.51941       10.64643
H        118.58692       39.30737       11.03246

Ca 1.0



