%chk=apoCaM-CA-Ng.loop1.water5.frame691.chk
%nprocshared=20
%mem=10GB
%nosave
#b3lyp/svp scf=(tight,noincore,xqc) Test 
#IOP(5/87=12) Density=Current Pop=(MK,readradii) iop(6/33=2) iop(6/42=6)

apoCaM-CA-Ng.loop1.water5.frame691 

   0  1 
C         59.95619       68.16615       80.30953
C         59.23841       68.09835       81.62655
O         58.10133       68.54017       81.70259
H         60.97715       67.73387       80.37998
H         59.38661       67.59829       79.54466
H         60.04483       69.22495       79.98874
N         59.84858       67.55086       82.71295
C         59.23204       67.44371       84.02599
C         59.97178       68.35052       85.06250
O         61.36189       68.45828       84.91667
C         58.96296       65.94459       84.38862
C         59.91697       64.84417       83.92327
O         61.20718       64.76876       84.29716
O         59.48247       63.96465       83.19566
H         60.80705       67.18293       82.61046
H         58.21542       67.89664       84.03352
H         58.00479       65.69405       83.87779
H         58.73574       65.85511       85.46701
N         59.56100       68.11550       86.45985
C         60.19111       69.03931       87.42568
C         59.84567       68.59298       88.84077
O         59.21033       69.32416       89.58719
C         59.84376       70.52286       87.11042
C         60.60953       71.50174       88.01762
C         60.52436       72.94610       87.51170
C         61.30752       73.89096       88.43655
N         61.33979       75.24986       87.90056
H         58.52012       68.20828       86.52711
H         61.29514       68.94576       87.34309
H         58.74915       70.70789       87.17534
H         60.16626       70.72765       86.06780
H         61.68401       71.21447       88.02723
H         60.21300       71.44954       89.05160
H         59.46383       73.27425       87.45495
H         60.96893       72.98770       86.49316
H         62.35465       73.52890       88.54358
H         60.83242       73.89881       89.44340
H         60.36859       75.61656       87.77871
H         61.85818       75.86615       88.56778
H         61.84042       75.25544       86.98191
N         60.26966       67.37090       89.27200
C         60.05347       66.85615       90.62440
C         61.40225       66.52579       91.26195
O         62.36697       66.37472       90.52610
C         59.21057       65.56410       90.53676
C         57.90482       65.78618       89.82451
O         57.65737       65.17834       88.79445
O         56.99986       66.65071       90.31954
H         60.79234       66.78055       88.60885
H         59.52184       67.61106       91.24173
H         58.99629       65.15901       91.54500
H         59.79068       64.79170       89.98613
N         61.58808       66.32865       92.59989
C         60.62499       66.60109       93.65276
C         60.51523       68.08423       93.93214
O         61.09895       68.88693       93.21715
H         62.51796       66.00330       92.90895
H         61.02208       66.15616       94.59132
H         59.64252       66.13000       93.45467
N         59.80632       68.51549       95.01413
C         59.69009       69.92855       95.37801
C         61.02816       70.58769       95.73032
O         61.06184       71.80639       95.83380
C         58.70417       70.11850       96.55748
C         59.20523       69.53678       97.85989
O         59.42329       68.34092       97.97008
O         59.40536       70.34311       98.91986
H         59.31568       67.80456       95.57653
H         59.26567       70.45086       94.49181
H         57.72525       69.65696       96.30443
H         58.53305       71.20696       96.70631
N         62.15126       69.85580       95.99096
C         63.41972       70.44410       96.40314
C         64.19892       71.13354       95.29468
O         65.31166       71.56127       95.56752
H         62.09609       68.82757       95.98570
H         64.07180       69.62176       96.76496
H         63.25562       71.13491       97.25922
N         63.71645       71.26136       94.02618
C         64.51090       71.79823       92.92310
C         65.41889       70.71458       92.38207
O         64.92175       69.65767       92.01873
C         63.62527       72.38968       91.79069
C         62.60589       71.42650       91.16020
O         62.97051       73.55132       92.23455
H         62.78019       70.90171       93.81890
H         65.12740       72.65371       93.28193
H         64.31889       72.70469       90.97859
H         62.38546       73.29897       92.99455
H         61.82347       71.11912       91.88058
H         62.09727       71.95058       90.33680
H         63.08553       70.52601       90.73070
N         66.76905       70.90075       92.31253
C         67.67533       69.87632       91.80046
C         68.42828       69.22723       92.95582
O         69.03957       68.18950       92.74035
C         68.57785       70.46176       90.66890
C         67.75186       71.20949       89.58235
C         69.47225       69.39272       90.01038
C         66.69825       70.36270       88.85921
H         67.17314       71.78760       92.65189
H         67.08055       69.04696       91.36169
H         69.25325       71.22168       91.12164
H         68.45014       71.62502       88.82271
H         67.23240       72.07459       90.04757
H         70.18120       68.95482       90.73948
H         68.86557       68.57397       89.57089
H         70.08803       69.85094       89.20686
H         66.17908       70.99239       88.10615
H         67.15974       69.50472       88.33109
H         65.93187       69.98948       89.56651
N         68.35138       69.72049       94.22926
C         68.83370       68.99900       95.39481
C         69.94395       69.76852       96.06811
O         69.74389       70.91461       96.44710
C         67.66623       68.77209       96.37894
C         66.51946       68.00079       95.71464
O         68.13424       68.04786       97.48770
H         67.87533       70.61389       94.41650
H         69.21742       67.99631       95.10384
H         67.28466       69.76780       96.71022
H         67.49621       68.21372       98.22988
H         66.10573       68.57277       94.85647
H         66.87508       67.01302       95.35316
H         65.70083       67.84114       96.44575
N         71.15145       69.16942       96.25479
C         72.28419       69.79673       96.92058
C         73.49406       68.88634       96.76744
O         74.46923       69.31078       96.16319
C         71.96171       70.13044       98.41166
C         73.13354       70.82465       99.11553
O         71.60384       68.96927       99.11552
H         71.27209       68.21177       95.88848
H         72.51217       70.75384       96.39757
H         71.10612       70.84024       98.43227
H         71.11723       69.25812       99.93165
H         74.02438       70.16358       99.15317
H         73.39586       71.76487       98.58590
H         72.84476       71.08241      100.15752
N         73.49476       67.61958       97.28175
C         74.62972       66.71426       97.17415
C         74.16834       65.34706       96.69269
O         73.21436       64.81968       97.25030
C         75.29944       66.60020       98.55149
C         76.74232       66.09660       98.40971
C         77.44038       66.02334       99.76781
C         78.94653       65.79700       99.58847
N         79.61487       65.69251      100.88357
H         72.67679       67.29397       97.81544
H         75.38664       67.13869       96.47824
H         74.69076       65.97239       99.23967
H         75.36986       67.62043       98.99102
H         77.28571       66.83029       97.77144
H         76.77956       65.10235       97.91330
H         76.98553       65.20253      100.36397
H         77.30232       66.98261      100.31354
H         79.37502       66.65871       99.02638
H         79.12970       64.87075       99.00086
H         79.43607       66.55099      101.45412
H         79.26602       64.84927      101.39403
H         80.64447       65.59705      100.72974
N         74.82546       64.68310       95.70040
C         74.39450       63.36958       95.22866
C         73.04278       63.46050       94.52296
O         72.13835       62.76016       94.95594
C         75.46691       62.68520       94.34575
C         76.77862       62.33417       95.08031
C         76.63290       61.23372       96.10495
O         77.22296       60.17644       95.94626
O         75.89390       61.40977       97.21631
H         75.67278       65.10992       95.29618
H         74.25342       62.70058       96.10044
H         75.73526       63.34342       93.50335
H         75.05634       61.74125       93.92238
H         77.21858       63.23496       95.55694
H         77.49548       61.97819       94.30754
N         72.76989       64.27922       93.46300
C         73.69562       65.21605       92.86261
H         74.54939       64.69543       92.39708
H         73.18258       65.77498       92.05179
H         74.04191       65.95576       93.61208
H         71.81513       64.25749       93.07132
Ca        62.07528       66.43481       85.42114
O         63.47814       64.22920       88.06750
H         63.32266       63.45955       88.67003
H         63.62234       64.99684       88.67449
O         65.92709       65.29093       86.68328
H         66.06807       64.31595       86.78520
H         65.96933       65.64520       87.60712
O         63.76979       67.83460       87.82911
H         63.85811       68.78755       87.57527
H         64.09820       67.79538       88.76214
O         60.68834       64.52502       87.09433
H         60.77703       64.08747       87.97513
H         59.96239       65.18387       87.21849
O         63.58396       63.21102       85.24722
H         62.86862       62.66409       84.83557
H         64.42549       62.77394       84.96350

Ca 1.0



