%chk=apoCaM-CA-Ng.loop4.water4.frame234.chk
%nprocshared=20
%mem=10GB
%nosave
#b3lyp/svp scf=(tight,noincore,xqc) Test 
#IOP(5/87=12) Density=Current Pop=(MK,readradii) iop(6/33=2) iop(6/42=6)

apoCaM-CA-Ng.loop4.water4.frame234 

   -3  1 
C         15.00911       33.43018       83.87414
C         14.45812       34.61119       83.13367
O         14.27128       35.64089       83.75910
H         16.00095       33.69597       84.29904
H         14.32266       33.15914       84.70316
H         15.13374       32.55218       83.20780
N         14.19449       34.53778       81.79535
C         13.71446       35.64771       80.97429
C         14.75539       36.81612       80.84432
O         15.14596       37.40540       82.05071
C         12.18721       35.95145       81.15903
C         11.51819       35.87088       82.52310
O         11.74764       36.77528       83.48676
O         10.69033       34.99670       82.73062
H         14.38414       33.64773       81.31030
H         13.70997       35.29031       79.91707
H         11.67105       35.15396       80.57487
H         11.92929       36.90475       80.65135
N         15.94128       36.30081       80.13025
C         17.06021       37.21620       79.80759
C         16.63575       38.28365       78.79665
O         17.17898       38.28781       77.70028
C         17.82377       37.77555       81.05578
C         19.14284       38.49606       80.65993
C         18.13569       36.67499       82.09988
C         20.21769       37.61750       80.00435
H         16.30974       35.44241       80.60035
H         17.79332       36.56884       79.28284
H         17.19106       38.53716       81.55845
H         19.59099       38.91145       81.57959
H         18.92206       39.34467       79.98138
H         18.69140       37.10431       82.96075
H         17.21638       36.22298       82.51955
H         18.73043       35.85053       81.65715
H         20.51806       36.77953       80.66614
H         19.87972       37.21610       79.02909
H         21.12391       38.23074       79.81879
N         15.63938       39.17979       79.05883
C         15.13172       40.10914       78.05088
C         16.10355       41.23774       77.71832
O         16.33706       41.44479       76.53601
C         13.75045       40.70043       78.43383
C         12.65769       39.66794       78.55559
O         12.88641       38.47583       78.41953
O         11.39624       40.07424       78.79289
H         15.16492       39.15073       79.97107
H         14.92776       39.54146       77.11275
H         13.43848       41.39487       77.62235
H         13.78744       41.27834       79.37418
N         16.67409       42.06355       78.64577
C         16.62915       41.83280       80.07980
C         17.32631       42.93396       80.85682
O         18.42007       43.30432       80.45661
H         17.22853       42.86018       78.29322
H         17.17575       40.89269       80.28493
H         15.60421       41.69482       80.41464
N         16.84475       43.47646       82.01953
C         15.63170       43.09697       82.73250
C         15.61508       41.59884       83.02091
O         14.70704       40.92117       82.55930
C         14.37020       43.64276       82.00942
C         13.11451       43.40803       82.80889
O         12.18308       42.78860       82.32166
O         13.00363       43.89745       84.05904
H         17.42781       44.18637       82.48484
H         15.63573       43.61810       83.71595
H         14.24265       43.21330       80.99840
H         14.48262       44.74092       81.88684
N         16.54566       40.97616       83.80218
C         17.64407       41.61036       84.51644
C         18.88054       41.78259       83.67048
O         19.28118       40.83434       83.01646
H         16.40876       39.96907       83.97926
H         17.96376       40.90139       85.30524
H         17.31765       42.53068       85.04502
N         19.59056       42.94542       83.69752
C         20.83227       43.14262       82.94357
C         21.97146       42.21221       83.36281
O         22.98546       42.23420       82.67716
C         21.30564       44.61208       83.06403
C         20.34587       45.56621       82.33227
C         20.71948       47.02169       82.44937
N         19.98658       47.94928       81.79122
O         21.67043       47.37431       83.13225
H         19.22727       43.71862       84.27551
H         20.63040       42.92563       81.87220
H         22.30616       44.73318       82.59225
H         21.39654       44.88105       84.14100
H         19.31770       45.45757       82.72631
H         20.34714       45.29331       81.25434
H         19.18728       47.66502       81.20503
H         20.21981       48.95063       81.85951
N         21.91038       41.38781       84.45170
C         23.01143       40.49762       84.83348
C         23.68550       40.94361       86.11698
O         24.71097       40.36745       86.45339
C         22.54996       39.01553       84.92613
C         22.12956       38.48944       83.55046
C         21.41434       38.80446       85.94123
H         21.07617       41.41370       85.05255
H         23.82111       40.54485       84.07243
H         23.41635       38.39938       85.25631
H         21.84105       37.41846       83.61764
H         21.27167       39.06779       83.15901
H         22.97613       38.57387       82.83628
H         21.17178       37.72293       86.00646
H         21.71470       39.15279       86.95186
H         20.49154       39.33946       85.63646
N         23.19416       41.96330       86.87635
C         23.87771       42.47036       88.05288
C         23.07773       42.12048       89.28347
O         23.61926       41.47008       90.16771
C         24.07060       43.99721       87.92687
C         24.78868       44.38070       86.65426
N         26.04946       43.95744       86.40568
O         24.21837       45.08686       85.83543
H         22.30726       42.41684       86.62133
H         24.88509       42.00912       88.16090
H         24.64182       44.37853       88.80119
H         23.07642       44.49494       87.92645
H         26.55347       43.36677       87.08180
H         26.52494       44.22538       85.53075
N         21.78268       42.52843       89.41510
C         20.99690       42.29580       90.61942
C         19.68275       41.59034       90.31827
O         19.26591       41.51902       89.16999
C         20.67095       43.67164       91.23395
C         21.91254       44.46954       91.54062
C         22.73066       44.12165       92.62574
C         22.25846       45.57437       90.74327
C         23.87116       44.87652       92.91735
C         23.40743       46.31666       91.02575
C         24.21386       45.97636       92.11608
O         25.31031       46.71304       92.38507
H         21.35147       43.08002       88.65758
H         21.56918       41.67967       91.34738
H         20.06750       43.58320       92.16084
H         20.05588       44.22394       90.48701
H         22.47478       43.27771       93.25408
H         21.64694       45.85455       89.89419
H         24.48582       44.60715       93.76661
H         23.66820       47.15958       90.39790
H         25.88749       46.52049       93.13754
N         18.94436       41.11210       91.36101
C         17.55667       40.65539       91.30198
C         17.27030       39.41048       90.46601
O         16.12147       38.98903       90.49344
C         16.62444       41.82675       90.92576
C         16.77411       42.98957       91.92383
C         15.82552       44.10800       91.61914
O         15.88733       44.69446       90.55063
O         14.91441       44.48567       92.53621
H         19.36311       41.16257       92.30321
H         17.27275       40.35986       92.33839
H         15.56959       41.47590       90.96713
H         16.83731       42.17500       89.89280
H         17.80418       43.39299       91.89236
H         16.57664       42.61824       92.95402
N         18.22550       38.71326       89.78226
C         17.94832       37.41484       89.16317
C         18.64135       36.30063       89.93593
O         18.44435       35.14493       89.58371
C         18.40230       37.37995       87.68741
C         17.73438       38.40100       86.75377
C         16.25993       38.16642       86.56561
O         15.82270       37.87290       85.46382
O         15.40790       38.31008       87.59620
H         19.19861       39.04731       89.77545
H         16.86686       37.17244       89.21037
H         18.21962       36.36628       87.26392
H         19.49637       37.56033       87.67025
H         18.22734       38.30561       85.75988
H         17.90680       39.43087       87.12732
N         19.45031       36.55147       91.00722
C         20.08452       35.49000       91.75356
H         20.70784       35.92311       92.56487
H         19.31025       34.83754       92.20927
H         20.73602       34.89113       91.08330
H         19.63537       37.51319       91.32233
Ca        13.32817       38.21585       83.02257
O         10.73656       39.26090       85.07095
H         10.31512       40.01109       84.58212
H         10.20373       38.46768       84.81249
O         12.49000       37.06011       86.21374
H         12.81216       36.12526       86.26037
H         13.00458       37.53859       86.90948
O         13.62498       40.37653       85.44927
H         13.77598       40.27516       86.42201
H         13.78278       41.33793       85.27481
O         11.10970       39.85507       81.84874
H         11.69189       40.27492       82.52960
H         11.74001       39.37865       81.25395

Ca 1.0



