%chk=apoCaM-CA-Ng.loop3.water4.frame294.chk
%nprocshared=20
%mem=10GB
%nosave
#b3lyp/svp scf=(tight,noincore,xqc) Test 
#IOP(5/87=12) Density=Current Pop=(MK,readradii) iop(6/33=2) iop(6/42=6)

apoCaM-CA-Ng.loop3.water4.frame294 

   0  1 
C         72.33575       45.80231        5.33581
C         73.36689       45.86106        4.24280
O         73.55918       44.87503        3.54761
H         71.33731       45.58826        4.90147
H         72.60275       45.00683        6.06149
H         72.27339       46.76600        5.88756
N         74.07313       47.00583        4.04269
C         75.09636       47.20591        3.02495
C         76.31147       46.31173        3.24775
O         76.83873       45.73367        2.30740
C         74.48976       47.13895        1.60834
C         75.44308       47.60508        0.54303
O         75.75344       46.86085       -0.37322
O         75.93961       48.85669        0.58144
H         73.87841       47.81108        4.65868
H         75.46478       48.24744        3.16820
H         73.61079       47.81618        1.57856
H         74.15302       46.10414        1.38727
N         76.86381       46.25301        4.49072
C         78.19727       45.71855        4.76936
C         78.39190       44.23115        4.50827
O         79.53398       43.80017        4.60067
C         78.62112       46.04294        6.21952
C         78.62161       47.55701        6.49526
C         79.13157       47.86884        7.90036
C         79.06358       49.37821        8.16360
N         79.59340       49.70210        9.48529
H         76.34967       46.72311        5.24747
H         78.90390       46.24912        4.09219
H         79.65522       45.66630        6.38209
H         77.94254       45.52644        6.93455
H         77.59911       47.97464        6.40617
H         79.27338       48.06559        5.75147
H         80.18195       47.51629        7.99181
H         78.50614       47.33915        8.65249
H         78.00423       49.71602        8.09788
H         79.65198       49.92106        7.39056
H         79.51343       50.73288        9.64004
H         79.04813       49.20228       10.22455
H         80.60104       49.42729        9.53994
N         77.37968       43.38979        4.15322
C         77.61279       41.98940        3.79585
C         77.28844       41.82271        2.31753
O         76.56386       42.65392        1.78725
C         76.76421       41.08746        4.72210
C         77.05800       39.61038        4.66487
O         76.35355       38.77289        5.44944
O         77.94737       39.15991        3.96394
H         76.41654       43.75083        4.08837
H         78.68424       41.73157        3.94346
H         75.68749       41.25603        4.50492
H         76.95729       41.39087        5.77402
N         77.90716       40.87764        1.54966
C         77.72565       40.78956        0.10765
C         76.47739       40.02651       -0.28988
O         76.60448       39.04637       -1.00938
H         78.63496       40.28543        1.97262
H         78.59937       40.25142       -0.32376
H         77.73266       41.80783       -0.33814
N         75.23742       40.41648        0.11828
C         74.00106       39.74513       -0.25822
C         73.08495       40.68309       -1.03278
O         72.02849       40.23533       -1.45508
C         73.28500       39.24083        1.02082
C         74.04241       38.10989        1.74050
N         74.10409       36.92491        0.89102
O         75.33149       38.53300        2.08594
H         75.14071       41.22614        0.73671
H         74.20126       38.88221       -0.92922
H         72.27705       38.84966        0.76387
H         73.13961       40.09165        1.72303
H         73.12577       36.59918        0.71544
H         74.57497       36.15856        1.41770
N         73.40369       41.99392       -1.25286
C         72.53606       42.92090       -1.95297
C         71.17793       42.99587       -1.30688
O         70.18998       42.98012       -2.03025
H         74.28348       42.38964       -0.89706
H         72.43278       42.62419       -3.01993
H         73.00428       43.92950       -1.92538
N         71.04518       43.05924        0.04977
C         69.74795       43.14489        0.71252
C         69.51294       41.98058        1.64833
O         70.44048       41.23765        1.95124
C         69.68089       44.46966        1.48836
C         69.87753       45.62097        0.53627
C         71.04623       46.39374        0.59194
C         68.90930       45.90640       -0.43906
C         71.25083       47.43009       -0.32362
C         69.10989       46.94878       -1.34678
C         70.28520       47.71180       -1.29441
O         70.49824       48.71319       -2.17096
H         71.89597       43.05488        0.63679
H         68.93107       43.11464       -0.04107
H         70.49150       44.45593        2.25322
H         68.71477       44.58804        2.02339
H         71.80280       46.17657        1.33186
H         68.00139       45.31931       -0.49670
H         72.16154       48.01260       -0.28574
H         68.35461       47.15709       -2.09322
H         69.85645       48.93830       -2.85926
N         68.25392       41.73889        2.10886
C         67.91943       40.64728        3.01108
C         67.39542       39.49126        2.17160
O         68.02299       38.44369        2.17839
C         66.93370       41.13593        4.11861
C         67.50510       42.38935        4.83988
C         66.65459       40.01262        5.13678
C         66.54813       43.01271        5.85983
H         67.48090       42.32500        1.75207
H         68.84377       40.29252        3.52417
H         65.97652       41.42364        3.62921
H         67.71461       43.18161        4.09056
H         68.46168       42.13346        5.34547
H         65.88312       40.31910        5.87152
H         66.26857       39.10672        4.64367
H         67.58309       39.73670        5.67965
H         65.59263       43.29530        5.36885
H         66.34173       42.32542        6.70413
H         67.01078       43.92915        6.28374
N         66.30000       39.62760        1.36237
C         65.87293       38.56665        0.44239
C         65.35963       37.31445        1.14630
O         65.19187       36.30295        0.47833
C         64.80137       39.08238       -0.52831
O         65.30325       40.17619       -1.24590
H         65.81269       40.53546        1.34335
H         66.76254       38.27892       -0.16284
H         63.89929       39.38901        0.04723
H         64.53426       38.26911       -1.24127
H         64.58890       40.44009       -1.88187
N         65.10586       37.29738        2.48495
C         64.71864       36.12007        3.25273
C         65.78733       35.03938        3.15129
O         65.47354       33.87830        2.93134
C         63.31617       35.63112        2.85972
H         65.21992       38.16607        3.01712
H         64.67108       36.42924        4.32085
H         62.58232       36.45565        2.98567
H         63.28686       35.28964        1.80448
H         63.00663       34.78743        3.51237
N         67.09889       35.39179        3.26312
C         68.21690       34.46296        3.16304
C         69.20692       34.73397        4.27555
O         69.42491       35.88888        4.61518
C         68.91604       34.63070        1.81686
H         67.32039       36.39090        3.36767
H         67.87055       33.40598        3.20171
H         69.75976       33.90863        1.74468
H         68.20102       34.40504        0.99676
H         69.30622       35.66128        1.68944
N         69.86127       33.70362        4.87886
C         70.78996       33.86808        5.99097
C         70.06189       34.50318        7.15975
O         70.49995       35.51900        7.68580
C         72.06145       34.65732        5.59218
C         72.83115       33.98921        4.44530
C         74.12961       34.68857        4.15499
O         74.85692       34.26055        3.27397
O         74.51307       35.76797        4.86669
H         69.67481       32.74279        4.55498
H         71.11855       32.85516        6.31383
H         72.72706       34.70128        6.48330
H         71.81046       35.70070        5.30100
H         72.20746       33.99398        3.52512
H         73.06370       32.93868        4.72016
N         68.89898       33.95348        7.59902
C         68.13778       34.53091        8.68218
H         67.20818       33.94534        8.84179
H         68.73965       34.51706        9.61465
H         67.85956       35.57748        8.43233
H         68.52861       33.11074        7.13313
Ca        76.44020       36.80395        3.08635
O         79.64447       36.85623        2.64145
H         80.00135       37.69053        2.24510
H         80.17039       36.72901        3.47067
O         77.94431       34.05162        2.91883
H         78.54114       33.99292        3.70643
H         77.54997       33.14707        2.83856
O         77.96789       35.88371        5.73663
H         78.12899       35.00212        6.15776
H         78.57103       36.50382        6.21820
O         77.39864       36.50793        0.37329
H         76.66298       36.49890       -0.28883
H         78.22497       36.45631       -0.16825

Ca 1.0



