%chk=apoCaM-CA-Ng.loop4.water2.frame88.chk
%nprocshared=20
%mem=10GB
%nosave
#b3lyp/svp scf=(tight,noincore,xqc) Test 
#IOP(5/87=12) Density=Current Pop=(MK,readradii) iop(6/33=2) iop(6/42=6)

apoCaM-CA-Ng.loop4.water2.frame88 

   -3  1 
C         44.72788       64.21888       85.78371
C         43.92117       65.37091       85.27042
O         43.24717       66.00295       86.06997
H         45.44673       64.58105       86.54793
H         44.04462       63.47865       86.25265
H         45.28673       63.71863       84.96681
N         43.94520       65.71535       83.94755
C         43.14524       66.79690       83.38388
C         43.41348       68.10960       84.08350
O         42.52351       68.64294       84.72080
C         41.65424       66.38899       83.18045
C         41.00371       65.60357       84.28812
O         40.57476       66.15784       85.43527
O         40.83553       64.40369       84.13289
H         44.56597       65.19730       83.30814
H         43.47869       66.98593       82.33752
H         41.67652       65.69042       82.31310
H         41.02518       67.24844       82.85966
N         44.64367       68.69515       83.93403
C         45.03336       70.05371       84.32435
C         44.38159       71.07138       83.38201
O         45.11498       71.71201       82.64026
C         44.88392       70.33402       85.84627
C         45.29443       71.78345       86.23104
C         45.69808       69.30860       86.65967
C         46.72734       72.19230       85.87477
H         45.36196       68.15491       83.42635
H         46.12444       70.12939       84.11203
H         43.82142       70.22198       86.13871
H         45.17917       71.91088       87.32772
H         44.60176       72.49482       85.73327
H         46.77755       69.35568       86.40331
H         45.58454       69.49824       87.74804
H         45.34418       68.27633       86.45568
H         47.47084       71.55287       86.39203
H         46.89858       72.15463       84.78084
H         46.89276       73.24100       86.19702
N         43.03009       71.22377       83.28081
C         42.40527       72.00490       82.22424
C         42.47808       73.50109       82.49967
O         43.05673       74.19062       81.67156
C         40.98038       71.47209       81.92730
C         40.28547       72.26502       80.85637
O         39.11726       72.87853       81.12680
O         40.77041       72.35459       79.73988
H         42.41001       70.68891       83.88839
H         42.95530       71.80376       81.27457
H         40.34338       71.45024       82.82406
H         41.06029       70.41429       81.59343
N         41.92782       74.12237       83.58398
C         41.26213       73.44211       84.68890
C         40.65029       74.40419       85.68866
O         40.70962       75.60620       85.47087
H         42.02355       75.14879       83.61192
H         42.01067       72.79861       85.18927
H         40.42135       72.85119       84.31733
N         40.02615       73.99808       86.83317
C         39.86285       72.64088       87.35199
C         41.20498       71.94609       87.50161
O         41.39957       70.89140       86.91238
C         38.86350       71.79810       86.51853
C         38.26247       70.72000       87.38549
O         37.53810       71.04771       88.31228
O         38.49338       69.40899       87.19684
H         39.65454       74.74768       87.43873
H         39.41415       72.75764       88.36432
H         39.34675       71.37149       85.61461
H         38.01395       72.42763       86.17997
N         42.22717       72.46974       88.22426
C         42.18462       73.67609       89.03086
C         43.15070       74.69642       88.49959
O         43.72466       74.49123       87.43709
H         43.12142       71.96589       88.19312
H         42.48774       73.39919       90.06283
H         41.17896       74.12887       89.09630
N         43.42402       75.81380       89.22829
C         44.42599       76.78393       88.81456
C         45.71150       76.60814       89.61608
O         46.65027       77.35265       89.37899
C         43.86477       78.21901       88.83021
C         42.52933       78.29805       88.06319
C         42.12928       79.71539       87.75885
N         42.84046       80.44413       86.86609
O         41.13735       80.19707       88.28483
H         42.97098       75.93529       90.14838
H         44.72416       76.59616       87.75863
H         44.62502       78.87132       88.34623
H         43.70522       78.58267       89.86898
H         41.74772       77.80125       88.68036
H         42.59368       77.76223       87.09175
H         43.65601       80.03488       86.38588
H         42.55868       81.40613       86.62737
N         45.86712       75.54794       90.47406
C         47.15303       75.15515       91.04351
C         47.11841       74.96590       92.55526
O         48.16671       74.62786       93.09419
C         47.67309       73.87797       90.31984
C         47.97136       74.18378       88.84394
C         46.70782       72.68503       90.42185
H         45.08554       74.90173       90.63486
H         47.91443       75.94639       90.86526
H         48.63890       73.58227       90.78649
H         48.40617       73.29256       88.34518
H         47.04836       74.48007       88.30254
H         48.70849       75.01226       88.76685
H         46.50373       72.44310       91.48475
H         45.74737       72.89315       89.90491
H         47.15690       71.79137       89.93881
N         46.01990       75.23724       93.32329
C         46.08761       75.26422       94.78628
C         44.98811       74.47595       95.49529
O         45.05112       74.40566       96.71400
C         46.04374       76.74555       95.21095
C         47.21889       77.48340       94.60873
N         47.03844       78.39218       93.62174
O         48.35067       77.22514       94.99158
H         45.16049       75.58606       92.87222
H         47.04910       74.83231       95.14403
H         46.07397       76.86600       96.31542
H         45.08696       77.18169       94.84614
H         46.09758       78.59799       93.25597
H         47.84852       78.86616       93.19474
N         43.93292       73.90514       94.83823
C         42.82508       73.25553       95.54047
C         42.41494       71.94760       94.87716
O         42.02027       71.96499       93.72090
C         41.60676       74.20517       95.53676
C         41.76796       75.36690       96.49040
C         41.88514       76.68455       96.01958
C         41.75956       75.13433       97.87824
C         41.99186       77.74963       96.92250
C         41.85444       76.19983       98.77746
C         41.96937       77.51299       98.30195
O         42.05080       78.55187       99.15828
H         43.84529       74.02577       93.82067
H         43.08269       73.04003       96.60019
H         40.68895       73.66540       95.85880
H         41.43415       74.55570       94.49506
H         41.89359       76.88899       94.95682
H         41.65657       74.12804       98.26566
H         42.08187       78.76214       96.55002
H         41.82998       76.00388       99.84261
H         42.01798       78.43180      100.11854
N         42.37968       70.78911       95.60669
C         41.72915       69.55013       95.17099
C         42.35767       68.86938       93.95861
O         41.76389       67.91367       93.47629
C         40.21138       69.78375       94.95209
C         39.52460       70.32688       96.21663
C         38.03727       70.41650       96.03022
O         37.21586       69.70854       96.82957
O         37.56471       71.13127       95.16088
H         42.72954       70.80671       96.57645
H         41.80053       68.80892       95.99891
H         39.73640       68.80851       94.70384
H         40.03329       70.47469       94.10085
H         39.91841       71.33451       96.46776
H         39.73465       69.64532       97.06957
N         43.56929       69.23308       93.44938
C         44.16882       68.57439       92.28680
C         45.39281       67.75047       92.64794
O         45.94042       67.12861       91.74684
C         44.55947       69.63849       91.24893
C         43.35521       70.38216       90.67334
C         42.51354       69.49865       89.79188
O         43.00133       68.97567       88.80202
O         41.21338       69.29674       90.07651
H         44.10484       69.98521       93.90766
H         43.45817       67.85592       91.82119
H         45.12269       69.18593       90.40256
H         45.23297       70.36979       91.74509
H         43.75540       71.21550       90.07428
H         42.73821       70.81728       91.48513
N         45.87459       67.66704       93.92121
C         47.02704       66.86083       94.27420
H         47.81725       67.51372       94.69802
H         46.72893       66.10845       95.03335
H         47.45432       66.31948       93.40313
H         45.41949       68.18475       94.68535
Ca        39.96041       68.26595       85.92871
O         42.33323       66.04739       88.99225
H         42.13713       65.11648       89.26577
H         43.31953       66.08152       88.91224
O         39.31784       66.87593       88.86803
H         38.48120       66.58200       88.42760
H         39.51965       66.15944       89.52084

Ca 1.0



