%chk=apoCaM-CA-Ng.loop1.water5.frame536.chk
%nprocshared=20
%mem=10GB
%nosave
#b3lyp/svp scf=(tight,noincore,xqc) Test 
#IOP(5/87=12) Density=Current Pop=(MK,readradii) iop(6/33=2) iop(6/42=6)

apoCaM-CA-Ng.loop1.water5.frame536 

   0  1 
C         95.02909        1.84079       39.31434
C         95.75508        1.29253       38.11993
O         96.96491        1.45009       38.05947
H         93.93652        1.65618       39.25106
H         95.42115        1.37753       40.24285
H         95.19306        2.93948       39.36322
N         95.06990        0.67427       37.10988
C         95.65947        0.21363       35.85148
C         96.61107       -0.96128       36.03738
O         97.44992       -0.92316       36.92422
C         96.36417        1.38550       35.12502
C         96.70255        1.13158       33.67501
O         96.34435       -0.00409       33.04780
O         97.28196        1.99777       33.04092
H         94.04624        0.58537       37.20319
H         94.81737       -0.11114       35.19938
H         97.30208        1.64426       35.65835
H         95.69284        2.26980       35.14146
N         96.57477       -2.00694       35.15640
C         97.53918       -3.10436       35.07301
C         97.05316       -4.31887       35.83867
O         97.29605       -5.43231       35.39430
C         98.99656       -2.68904       35.41480
C        100.09533       -3.58451       34.80814
C        100.24099       -3.35219       33.29038
C        101.41545       -4.13742       32.69422
N        101.58385       -3.81516       31.27577
H         95.88178       -1.96756       34.39480
H         97.52219       -3.39377       34.00171
H         99.10765       -2.67870       36.52044
H         99.19178       -1.65793       35.04494
H         99.91675       -4.65415       35.04829
H        101.05986       -3.28365       35.27425
H        100.42895       -2.26886       33.11822
H         99.31481       -3.63850       32.75276
H        101.23043       -5.22790       32.81039
H        102.35298       -3.87803       33.23479
H        101.80047       -2.79736       31.16328
H        102.37937       -4.37067       30.88674
H        100.71383       -4.04760       30.74392
N         96.33764       -4.17365       36.99225
C         95.77442       -5.28214       37.74960
C         94.27480       -5.01822       37.91405
O         93.95685       -3.98153       38.48196
C         96.48166       -5.32948       39.11993
C         96.16052       -6.55014       39.92899
O         96.68752       -6.68464       41.16031
O         95.46995       -7.44310       39.46917
H         96.17741       -3.22682       37.36398
H         95.98722       -6.23219       37.22701
H         96.22516       -4.41693       39.70197
H         97.58138       -5.33575       38.96136
N         93.26679       -5.80250       37.42683
C         93.37985       -7.06217       36.71601
C         92.32963       -8.02827       37.22356
O         91.43644       -8.35941       36.45532
H         92.30979       -5.43103       37.52338
H         94.38331       -7.51903       36.77061
H         93.15739       -6.85791       35.64466
N         92.36217       -8.52071       38.49904
C         91.33822       -9.42139       39.02715
C         90.69155       -8.86118       40.27933
O         91.36128       -8.71118       41.28458
C         91.88805      -10.84452       39.22555
C         93.03515      -11.14069       40.17550
O         93.39285      -12.30541       40.24499
O         93.69968      -10.24851       40.94793
H         93.14493       -8.25442       39.10624
H         90.52949       -9.53902       38.27278
H         92.21177      -11.19972       38.22233
H         91.03229      -11.48130       39.54137
N         89.37509       -8.50977       40.28646
C         88.73081       -7.89730       41.43885
C         88.34358       -6.45998       41.16835
O         87.82974       -5.82567       42.07813
H         88.81102       -8.64169       39.43310
H         89.41100       -7.87836       42.31807
H         87.83728       -8.49253       41.72220
N         88.55400       -5.86538       39.95643
C         88.25052       -4.45972       39.71374
C         89.25075       -3.55609       40.42599
O         90.24300       -4.04291       40.95205
C         88.23145       -4.15239       38.18599
C         89.60333       -4.29704       37.51019
O         87.32470       -5.00718       37.53815
H         88.91670       -6.42621       39.17667
H         87.22587       -4.25791       40.09834
H         87.91415       -3.09764       38.02152
H         86.41382       -4.72648       37.81476
H         89.51698       -4.04413       36.43240
H         90.34481       -3.60596       37.96380
H         89.98434       -5.33452       37.58333
N         89.07103       -2.20508       40.42217
C         90.06785       -1.25942       40.92730
C         90.33940       -1.34437       42.43340
O         91.23390       -0.63831       42.87490
C         89.73370        0.20742       40.51047
C         88.41075        0.71180       41.14440
C         89.73630        0.33782       38.97193
C         88.16743        2.20468       40.91739
H         88.22598       -1.84540       39.95784
H         91.03444       -1.50782       40.43157
H         90.56212        0.85026       40.88420
H         88.45356        0.55791       42.24363
H         87.54165        0.14378       40.75195
H         88.91997       -0.25169       38.50621
H         89.62737        1.39383       38.65592
H         90.70489       -0.02091       38.56185
H         89.00990        2.79651       41.33469
H         88.04885        2.44042       39.84103
H         87.23279        2.50780       41.43401
N         89.67074       -2.19279       43.27342
C         90.02841       -2.34112       44.68870
C         88.82853       -2.15968       45.60510
O         87.71175       -1.99266       45.13945
C         90.70222       -3.72477       44.92833
C         89.83274       -4.91688       44.51321
O         91.95013       -3.78820       44.28557
H         88.92796       -2.79706       42.90052
H         90.76656       -1.56766       44.99154
H         90.90815       -3.83858       46.01188
H         91.79913       -3.65977       43.31480
H         89.68765       -4.91481       43.41799
H         90.33408       -5.86595       44.78548
H         88.84554       -4.88691       45.01951
N         89.02530       -2.20368       46.95693
C         87.96899       -2.11527       47.95278
C         88.22916       -0.91121       48.85000
O         87.40587       -0.00578       48.87761
C         87.89963       -3.46736       48.72683
C         86.84638       -3.46668       49.83801
O         89.15034       -3.79862       49.27614
H         89.98537       -2.32509       47.30784
H         86.98086       -1.97015       47.46107
H         87.62160       -4.24570       47.97659
H         89.17513       -4.78485       49.38805
H         87.09492       -2.71169       50.61382
H         85.84146       -3.25230       49.42065
H         86.82164       -4.46588       50.32506
N         89.34144       -0.85392       49.63418
C         89.64563        0.21747       50.57148
C         91.09302        0.63877       50.39237
O         91.96351       -0.22218       50.43609
C         89.39738       -0.31760       51.99258
C         89.69863        0.72318       53.08562
C         89.25874        0.26017       54.48430
C         89.96941       -1.01508       54.96642
N         89.51492       -1.38501       56.30630
H         89.99303       -1.64973       49.62438
H         88.96498        1.08763       50.43092
H         90.01169       -1.22810       52.15447
H         88.32292       -0.60114       52.05920
H         89.13966        1.65693       52.85651
H         90.78441        0.96210       53.09303
H         88.16005        0.08938       54.47893
H         89.47691        1.08201       55.20089
H         91.06865       -0.84512       54.98174
H         89.75187       -1.86013       54.27946
H         90.01094       -2.25431       56.60870
H         89.72738       -0.61827       56.98482
H         88.48541       -1.57158       56.29566
N         91.43896        1.94803       50.23581
C         92.83220        2.35892       50.08687
C         93.42902        1.83933       48.78260
O         94.39650        1.09698       48.87211
C         93.03007        3.88711       50.22534
C         92.75356        4.36894       51.65815
C         93.01604        5.84202       51.78630
O         93.97901        6.28664       52.61671
O         92.35801        6.64317       51.14195
H         90.69840        2.66588       50.27012
H         93.41856        1.91174       50.92365
H         92.40377        4.45431       49.51053
H         94.09530        4.12088       50.00270
H         93.42853        3.82507       52.35611
H         91.70352        4.15922       51.95139
N         92.97706        2.15708       47.53218
C         91.82993        2.98140       47.21243
H         91.25822        3.30903       48.09331
H         92.16805        3.87657       46.64901
H         91.13426        2.39994       46.57288
H         93.49412        1.77432       46.72516
Ca        93.84559       -8.06630       41.56658
O         96.48996       -9.69312       41.94810
H         96.43948      -10.63681       41.65287
H         97.29705       -9.65226       42.51955
O         95.69835       -7.28837       44.21906
H         95.37648       -6.43321       44.60058
H         96.41596       -7.58145       44.83511
O         93.11660       -5.22961       41.68750
H         92.93372       -5.33072       40.72009
H         93.75368       -4.47414       41.74556
O         94.15157      -10.14251       44.03602
H         93.79123       -9.84999       44.91045
H         93.62947      -10.95279       43.80979
O         92.48414       -7.27405       44.13935
H         91.93033       -8.08803       44.24481
H         92.53955       -6.88967       45.05003

Ca 1.0



