%chk=apoCaM-CA-Ng.loop1.water5.frame163.chk
%nprocshared=20
%mem=10GB
%nosave
#b3lyp/svp scf=(tight,noincore,xqc) Test 
#IOP(5/87=12) Density=Current Pop=(MK,readradii) iop(6/33=2) iop(6/42=6)

apoCaM-CA-Ng.loop1.water5.frame163 

   0  1 
C         80.99116       48.10878       47.76297
C         82.15296       49.01682       47.47764
O         82.76471       48.88347       46.43012
H         80.20564       48.24448       46.99175
H         81.33969       47.05481       47.75278
H         80.54767       48.31583       48.76058
N         82.51311       49.97448       48.37504
C         83.64602       50.88182       48.18695
C         85.01691       50.18364       48.26343
O         86.01721       50.86481       48.08671
C         83.52607       52.10839       49.14240
C         83.49768       51.84527       50.63306
O         82.63564       51.14274       51.13331
O         84.34619       52.49879       51.44557
H         81.91292       50.08101       49.20144
H         83.56117       51.32013       47.16927
H         82.57509       52.62769       48.89387
H         84.35118       52.82002       48.91997
N         85.14475       48.84127       48.50351
C         86.41813       48.12316       48.63074
C         86.50032       47.01301       47.59408
O         85.52993       46.27548       47.48889
C         86.50297       47.53568       50.05452
C         86.54624       48.65518       51.11187
C         87.92134       49.36166       51.15942
C         87.89480       50.65365       51.98364
N         87.28160       51.74341       51.22000
H         84.29809       48.27711       48.65096
H         87.26157       48.79092       48.50705
H         87.39696       46.88432       50.17199
H         85.60052       46.90719       50.22115
H         86.36349       48.22180       52.11845
H         85.71190       49.35587       50.91225
H         88.30583       49.64352       50.16262
H         88.63918       48.64038       51.60659
H         88.93958       50.95413       52.21542
H         87.36086       50.48537       52.94478
H         87.17915       52.58755       51.82725
H         87.88733       51.98965       50.40295
H         86.35335       51.45863       50.85126
N         87.58808       46.75869       46.79430
C         88.91207       47.38780       46.80377
C         89.61056       47.18941       48.15070
O         89.83696       48.17684       48.83571
C         88.94200       48.89101       46.38758
C         88.20470       49.29734       45.14936
O         88.30443       50.45502       44.77808
O         87.40461       48.46869       44.45826
H         87.48878       45.97574       46.12755
H         89.52709       46.87672       46.03311
H         90.01457       49.15052       46.23753
H         88.58489       49.57084       47.17623
N         90.03263       45.98409       48.63346
C         90.00204       44.71189       47.91567
C         90.67567       43.59334       48.72621
O         91.01020       43.81112       49.88210
H         90.47466       46.01716       49.56422
H         90.58313       44.84491       46.97741
H         88.95992       44.42401       47.66375
N         90.98553       42.37072       48.20304
C         90.73040       41.95604       46.83149
C         91.97146       42.14938       45.98180
O         93.01872       42.51124       46.50303
C         90.23836       40.48707       46.80326
C         91.23377       39.51450       47.39331
O         92.34091       39.37853       46.89644
O         90.90049       38.78363       48.47457
H         91.53080       41.73021       48.80241
H         89.94134       42.59664       46.38483
H         90.02041       40.17438       45.76006
H         89.29159       40.42003       47.38067
N         91.89718       41.96994       44.63533
C         93.00920       42.18918       43.73047
C         92.68397       43.36138       42.85200
O         92.55633       43.19459       41.64664
H         90.99165       41.70651       44.21661
H         93.16602       41.26791       43.12893
H         93.95592       42.41073       44.26860
N         92.52925       44.59449       43.41140
C         92.16070       45.78631       42.65975
C         93.29228       46.80232       42.70664
O         94.27312       46.59317       43.41167
C         90.85381       46.37468       43.26259
C         89.70333       45.36195       43.23378
O         90.45508       47.52154       42.56010
H         92.67193       44.69393       44.42992
H         91.99060       45.53199       41.58979
H         91.07305       46.64362       44.32219
H         89.90340       48.06768       43.17809
H         88.79427       45.81534       43.68359
H         89.47422       45.06986       42.18692
H         89.95713       44.45388       43.81975
N         93.21599       47.93388       41.95618
C         94.21479       48.99208       41.94916
C         93.56711       50.26109       42.47511
O         94.06973       50.83896       43.42712
C         94.75907       49.20889       40.50320
C         95.33806       47.91688       39.86901
C         95.78750       50.35646       40.45231
C         96.57556       47.34395       40.56429
H         92.39841       48.05601       41.34149
H         95.07165       48.74002       42.61333
H         93.90682       49.50709       39.85330
H         95.60885       48.13227       38.81191
H         94.54973       47.13408       39.85054
H         96.14247       50.50885       39.41103
H         95.33174       51.31059       40.79034
H         96.65938       50.14571       41.10551
H         96.35514       47.07078       41.61501
H         96.89911       46.42655       40.02870
H         97.41845       48.06414       40.53627
N         92.44622       50.75808       41.87381
C         91.83392       52.02912       42.23965
C         91.39661       52.11172       43.68849
O         91.17212       51.09490       44.33438
C         90.61840       52.35099       41.32791
C         89.48687       51.31175       41.45612
O         91.04559       52.41566       39.99295
H         92.05353       50.23865       41.07841
H         92.61143       52.81028       42.08312
H         90.21863       53.34685       41.63381
H         90.35189       52.92336       39.49554
H         89.82222       50.29816       41.15483
H         89.11112       51.26109       42.49610
H         88.63797       51.59782       40.80313
N         91.26183       53.34378       44.25126
C         90.74807       53.60126       45.58925
C         89.68464       54.69132       45.52944
O         89.47463       55.27765       44.47096
C         91.90297       53.97390       46.55553
C         92.75262       55.15884       46.07280
O         92.72346       52.85625       46.79126
H         91.54598       54.16050       43.68522
H         90.25681       52.68620       45.99205
H         91.46228       54.25360       47.53582
H         93.15442       52.60263       45.93452
H         93.26582       54.91167       45.11903
H         92.12288       56.05969       45.92166
H         93.53172       55.39000       46.82905
N         88.94390       55.00027       46.63028
C         87.88966       56.01663       46.62675
C         86.73083       55.70427       45.67202
O         85.85069       56.54566       45.55158
C         87.38843       56.30703       48.06192
C         86.72744       55.11232       48.77746
C         86.24455       55.46057       50.19898
C         87.38132       55.88827       51.14770
N         86.88037       56.10799       52.50412
H         89.16053       54.50397       47.50746
H         88.34699       56.96854       46.27276
H         86.66300       57.15027       48.02928
H         88.27154       56.64455       48.64184
H         87.43202       54.25937       48.85202
H         85.84811       54.77937       48.18546
H         85.76249       54.55294       50.61784
H         85.48033       56.26636       50.14918
H         87.84482       56.83215       50.79068
H         88.16378       55.09777       51.17303
H         86.48494       55.21992       52.88952
H         87.67158       56.41746       53.11437
H         86.14571       56.85246       52.50190
N         86.68467       54.56601       44.91432
C         85.66433       54.33439       43.90162
C         84.32326       54.08278       44.55701
O         84.20842       53.15143       45.33915
C         86.10258       53.18434       42.95464
C         85.06626       52.93082       41.85087
C         85.58477       52.08279       40.71653
O         85.58121       52.55537       39.59077
O         86.04245       50.82165       40.86959
H         87.42273       53.85836       45.00236
H         85.60472       55.23819       43.25283
H         86.29881       52.24453       43.50934
H         87.05768       53.50672       42.48171
H         84.77177       53.91257       41.41572
H         84.15811       52.46606       42.28674
N         83.25933       54.88611       44.27212
C         81.94201       54.70454       44.84774
H         81.20852       54.52411       44.03382
H         81.90039       53.84765       45.55248
H         81.65021       55.62485       45.39530
H         83.37799       55.66407       43.60577
Ca        86.56997       49.47860       42.61288
O         84.74898       50.27330       44.92291
H         84.44439       50.80626       44.14781
H         85.58034       50.71628       45.22480
O         84.55595       47.17981       44.37392
H         84.67707       47.66312       45.22835
H         84.47629       46.23044       44.64154
O         85.48719       48.54702       38.96695
H         85.90336       49.39659       38.67497
H         86.03466       47.84498       38.53409
O         88.09083       47.87019       40.59661
H         88.93005       47.37856       40.41521
H         88.17239       48.70304       40.06748
O         83.23346       49.47614       41.95156
H         82.77369       50.23903       42.38394
H         83.30980       49.74073       41.00057

Ca 1.0



