%chk=apoCaM-CA-Ng.loop1.water5.frame44.chk
%nprocshared=20
%mem=10GB
%nosave
#b3lyp/svp scf=(tight,noincore,xqc) Test 
#IOP(5/87=12) Density=Current Pop=(MK,readradii) iop(6/33=2) iop(6/42=6)

apoCaM-CA-Ng.loop1.water5.frame44 

   0  1 
C         67.43827       45.14638       56.60859
C         68.19945       44.10244       57.36965
O         68.74642       44.42411       58.41366
H         66.62419       45.55120       57.24552
H         68.12638       45.97132       56.32842
H         66.99104       44.72900       55.68225
N         68.26205       42.81976       56.91410
C         68.99709       41.76101       57.59554
C         70.03632       41.10561       56.68862
O         70.44855       39.99847       57.00088
C         68.01554       40.75207       58.24199
C         67.10614       39.99873       57.30719
O         67.15790       40.15316       56.09794
O         66.21507       39.13151       57.82466
H         67.75162       42.57904       56.05161
H         69.56739       42.16862       58.45938
H         67.37804       41.31204       58.96094
H         68.59734       40.00760       58.82912
N         70.55551       41.75017       55.59429
C         71.64652       41.21328       54.77516
C         72.79296       42.22931       54.76069
O         72.55574       43.31210       54.24196
C         71.14159       40.95989       53.33862
C         72.18904       40.21130       52.49923
C         71.71795       40.00272       51.05589
C         72.71859       39.12810       50.28696
N         72.32460       38.97951       48.88684
H         70.19112       42.68135       55.34309
H         71.96933       40.23349       55.15984
H         70.86630       41.92448       52.85619
H         70.22611       40.32945       53.38359
H         72.37033       39.22283       52.97577
H         73.14624       40.77671       52.47862
H         71.62083       40.99445       50.56135
H         70.72563       39.50063       51.04712
H         72.76174       38.12367       50.76574
H         73.73380       39.58108       50.33252
H         72.35568       39.90943       48.40906
H         72.99534       38.33349       48.41105
H         71.36126       38.57823       48.81903
N         74.04362       42.04759       55.29686
C         74.57019       40.90765       56.04627
C         74.75424       39.67491       55.17039
O         74.08373       38.67790       55.39852
C         73.75351       40.62249       57.32928
C         73.51823       41.81863       58.20345
O         73.97094       42.91694       57.92573
O         72.76330       41.67315       59.30406
H         74.69293       42.84693       55.21338
H         75.58255       41.17849       56.42030
H         74.27121       39.85078       57.93261
H         72.77693       40.20859       57.08388
N         75.68587       39.61720       54.17289
C         76.59490       40.71102       53.84534
C         77.59440       40.35164       52.74828
O         77.58697       39.22480       52.27112
H         75.75338       38.72877       53.65337
H         77.17027       40.99190       54.75069
H         75.99135       41.57737       53.50659
N         78.48911       41.25634       52.25023
C         78.58276       42.64423       52.69647
C         79.17634       42.79658       54.09297
O         79.12180       43.90458       54.61167
C         79.36135       43.50380       51.66845
C         80.80609       43.12124       51.45114
O         81.37719       42.10410       52.12516
O         81.47160       43.74556       50.64040
H         79.08255       40.95050       51.46287
H         77.55273       43.05983       52.70931
H         79.32863       44.56840       51.98740
H         78.83758       43.42929       50.69012
N         79.78823       41.76577       54.75015
C         80.37514       41.90951       56.07602
C         79.87462       40.86225       57.04498
O         79.10039       39.99154       56.66849
H         79.89012       40.85173       54.28388
H         80.17795       42.91562       56.50370
H         81.47679       41.78684       55.99132
N         80.33323       40.87573       58.32881
C         80.03260       39.83038       59.31006
C         78.54201       39.69031       59.60988
O         77.75404       40.52662       59.19261
C         80.84190       40.05773       60.61713
C         80.41771       41.33712       61.36283
O         82.20952       40.12428       60.29881
H         80.98831       41.63037       58.58606
H         80.37249       38.86935       58.86282
H         80.67121       39.18594       61.28879
H         82.71252       40.07890       61.15365
H         81.01990       41.44997       62.28909
H         80.57212       42.24272       60.74083
H         79.34867       41.28360       61.65670
N         78.09533       38.60096       60.30585
C         76.68935       38.33330       60.60603
C         76.52419       38.07116       62.09828
O         77.21478       37.20560       62.61950
C         76.18867       37.09399       59.79881
C         76.39772       37.31326       58.27735
C         74.70182       36.82712       60.11942
C         75.91952       36.14682       57.40882
H         78.78543       37.88791       60.58851
H         76.05070       39.19150       60.30265
H         76.77512       36.19766       60.10279
H         77.48269       37.44532       58.08012
H         75.87496       38.23292       57.94766
H         74.32530       35.91752       59.61357
H         74.57103       36.63480       61.19875
H         74.07352       37.69718       59.83058
H         74.81931       36.02054       57.47103
H         76.16221       36.35531       56.34614
H         76.41966       35.20399       57.71494
N         75.56057       38.71718       62.82317
C         75.28049       38.41273       64.23067
C         73.91393       37.74856       64.43058
O         73.64534       37.31793       65.54347
C         75.41550       39.67985       65.10585
C         74.37456       40.75735       64.77262
O         76.70631       40.21199       64.94688
H         74.97218       39.41080       62.33976
H         76.02558       37.67545       64.60352
H         75.25743       39.36822       66.16693
H         77.00227       40.54213       65.83502
H         74.50205       41.12534       63.73616
H         73.34427       40.36082       64.89428
H         74.49286       41.62086       65.45913
N         73.01029       37.61772       63.41187
C         71.71576       36.93689       63.50012
C         70.74960       37.62937       64.46756
O         71.14221       38.52631       65.20056
C         71.89928       35.41640       63.80524
C         72.84730       34.75221       62.79862
O         70.66340       34.75368       63.74097
H         73.23967       38.00608       62.48858
H         71.24726       37.01942       62.49305
H         72.32395       35.30193       64.82811
H         70.76279       33.89485       64.22941
H         73.86311       35.18974       62.86743
H         72.93383       33.66690       63.01876
H         72.45981       34.87265       61.76379
N         69.43248       37.26609       64.47720
C         68.41232       37.83330       65.36359
C         68.12958       39.31810       65.13486
O         67.36188       39.88383       65.90194
C         67.08345       37.05096       65.19763
C         66.45434       37.25303       63.80068
C         65.16984       36.43980       63.62432
C         64.48416       36.71602       62.27249
N         65.30647       36.31990       61.12587
H         69.14701       36.51826       63.83406
H         68.76833       37.69394       66.40864
H         66.35684       37.38784       65.96962
H         67.28257       35.97023       65.37093
H         67.17681       36.95256       63.01921
H         66.21030       38.32757       63.65927
H         64.45777       36.72164       64.43015
H         65.39427       35.35482       63.71847
H         64.23273       37.79742       62.19427
H         63.53266       36.14151       62.24517
H         66.16923       36.90490       61.06062
H         65.56225       35.30842       61.19613
H         64.75690       36.46893       60.24909
N         68.67006       40.00657       64.09179
C         68.37089       41.40954       63.82398
C         66.93833       41.56364       63.35046
O         66.57261       40.95687       62.35250
C         69.34243       41.96553       62.76401
C         70.77513       41.96599       63.32184
C         71.77018       42.45873       62.32374
O         72.69382       41.73768       61.98666
O         71.68260       43.70462       61.82461
H         69.31115       39.51997       63.45168
H         68.53005       42.00743       64.74955
H         69.05878       43.01213       62.51341
H         69.28197       41.35360       61.83538
H         71.06852       40.93995       63.62843
H         70.82173       42.62072       64.21829
N         66.07811       42.38544       64.01675
C         64.70423       42.60903       63.61073
H         64.02319       42.32646       64.44032
H         64.56057       43.68653       63.38249
H         64.42464       42.02235       62.71056
H         66.41100       42.89663       64.84782
Ca        73.32464       44.41200       60.44927
O         75.59396       45.25064       62.17299
H         76.37685       44.70317       62.43229
H         75.98146       46.09423       61.82916
O         75.64187       45.41712       58.67019
H         75.85208       44.80926       57.91763
H         76.42317       46.02221       58.72474
O         71.49052       45.03936       58.31855
H         71.37388       44.05610       58.34239
H         71.48641       45.26617       57.35571
O         75.57858       42.34016       61.03529
H         75.63048       41.65635       60.32243
H         76.29740       42.09504       61.67014
O         72.88119       47.21064       61.34114
H         72.41237       46.61300       61.97670
H         72.24738       47.31662       60.58772

Ca 1.0



