%chk=apoCaM-CA-Ng.loop4.water6.frame634.chk
%nprocshared=20
%mem=10GB
%nosave
#b3lyp/svp scf=(tight,noincore,xqc) Test 
#IOP(5/87=12) Density=Current Pop=(MK,readradii) iop(6/33=2) iop(6/42=6)

apoCaM-CA-Ng.loop4.water6.frame634 

   -3  1 
C         -4.34717       50.01071       10.83374
C         -4.84187       51.40988       11.04936
O         -4.55672       52.27674       10.23591
H         -3.70430       49.70740       11.68455
H         -5.21186       49.31652       10.76639
H         -3.75948       49.93813        9.89370
N         -5.62567       51.69104       12.12939
C         -6.19786       53.00314       12.42101
C         -7.02557       53.48439       11.24153
O         -6.80059       54.58275       10.74769
C         -5.09827       54.02136       12.80161
C         -4.29711       53.56264       13.98273
O         -4.89667       53.34011       15.16743
O         -3.09373       53.40347       13.87639
H         -5.86448       50.91888       12.77115
H         -6.87886       52.89378       13.29475
H         -5.56659       54.99545       13.06019
H         -4.41771       54.18703       11.93750
N         -7.96947       52.66961       10.69090
C         -8.66567       53.03785        9.45783
C         -9.80198       54.02213        9.78848
O        -10.12075       54.14263       10.96388
C         -9.12219       51.76018        8.65476
C        -10.50188       51.18007        9.05791
C         -8.03037       50.66964        8.59310
C        -10.62342       50.67638       10.49204
H         -8.09500       51.73410       11.10117
H         -7.90765       53.53093        8.80838
H         -9.24609       52.05155        7.60036
H        -10.74818       50.34160        8.36962
H        -11.27688       51.96076        8.89814
H         -7.07626       51.09833        8.21932
H         -7.83966       50.19718        9.57699
H         -8.34047       49.86007        7.89823
H        -10.45456       51.49784       11.21556
H        -11.65481       50.29375       10.64771
H         -9.91079       49.84972       10.68345
N        -10.50940       54.74207        8.86607
C        -10.20023       54.82991        7.44794
C         -8.95774       55.65095        7.17740
O         -8.36459       55.45488        6.12784
C        -11.38975       55.37654        6.62315
C        -11.85702       56.77369        6.95394
O        -12.79132       57.24845        6.32914
O        -11.27947       57.50743        7.92369
H        -11.31550       55.28273        9.21550
H        -10.06289       53.82336        7.03886
H        -12.25019       54.68675        6.76224
H        -11.10911       55.35540        5.54617
N         -8.52859       56.62802        8.03137
C         -7.43639       57.51330        7.67735
C         -7.85627       58.41466        6.53783
O         -8.68006       59.29294        6.75270
H         -8.99865       56.77656        8.93623
H         -6.54540       56.90233        7.41840
H         -7.16099       58.16268        8.53744
N         -7.35215       58.22907        5.28752
C         -7.66814       59.08750        4.15049
C         -8.55326       58.40325        3.11403
O         -8.83811       59.03985        2.11014
C         -6.35039       59.65600        3.55846
C         -5.28863       58.63163        3.24221
O         -4.11251       58.66511        3.89812
O         -5.46573       57.78547        2.38665
H         -6.71749       57.43137        5.13051
H         -8.26654       59.96833        4.47103
H         -5.91795       60.34163        4.31754
H         -6.56386       60.25836        2.64850
N         -9.09192       57.15741        3.29188
C         -9.94803       56.52874        2.29065
C         -9.19387       56.18641        1.01742
O         -9.82145       55.80754        0.03952
H         -8.92114       56.64372        4.16061
H        -10.78908       57.21946        2.06374
H        -10.38145       55.58643        2.69258
N         -7.83467       56.26900        0.97662
C         -6.98939       55.99832       -0.17379
C         -7.05200       54.54792       -0.60873
O         -6.74966       54.25623       -1.75714
C         -7.18703       57.02801       -1.30990
C         -6.98693       58.46243       -0.78109
C         -6.97383       59.52742       -1.84623
N         -6.81710       60.82335       -1.48733
O         -7.09057       59.23575       -3.02740
H         -7.33540       56.51470        1.83408
H         -5.93682       56.13137        0.16378
H         -8.19513       56.93340       -1.76812
H         -6.42130       56.82741       -2.09103
H         -6.01774       58.52497       -0.24128
H         -7.80498       58.69664       -0.07480
H         -6.71797       61.08455       -0.49445
H         -6.79302       61.56807       -2.19920
N         -7.31649       53.57080        0.30829
C         -7.20286       52.14490        0.02215
C         -6.17646       51.46533        0.92950
O         -5.88670       50.30374        0.67088
C         -8.58450       51.43811        0.13016
C         -9.22563       51.58973        1.52187
C         -9.54893       51.94991       -0.94819
H         -7.58357       53.84868        1.26175
H         -6.83020       51.99812       -1.01562
H         -8.43276       50.35208       -0.06067
H        -10.17525       51.01536        1.56709
H         -8.55095       51.19839        2.31161
H         -9.46205       52.65179        1.74415
H         -9.75678       53.03275       -0.81850
H         -9.11369       51.78584       -1.95718
H        -10.50980       51.39406       -0.89638
N         -5.61702       52.07811        2.02120
C         -4.68832       51.40151        2.92260
C         -3.44427       52.24500        3.17727
O         -3.43234       53.42946        2.86341
C         -5.43871       51.12192        4.24618
C         -4.63961       50.35257        5.26777
N         -4.19280       49.10306        5.00111
O         -4.40169       50.86117        6.35322
H         -5.90284       53.03107        2.28379
H         -4.36725       50.43624        2.47517
H         -6.35481       50.53339        4.02188
H         -5.75962       52.09406        4.68425
H         -4.38810       48.65462        4.09451
H         -3.64659       48.58289        5.70356
N         -2.34753       51.67834        3.75677
C         -1.16157       52.43253        4.16441
C          0.04474       51.50146        4.34193
O         -0.10695       50.28901        4.28704
C         -1.53956       53.21758        5.45382
C         -0.46634       54.05785        6.10573
C         -0.11502       53.82085        7.44725
C          0.16180       55.10500        5.41311
C          0.85555       54.60133        8.07823
C          1.14028       55.88241        6.04561
C          1.49141       55.63254        7.37750
O          2.43368       56.39024        7.97458
H         -2.37549       50.66250        3.92101
H         -0.88278       53.12211        3.33702
H         -1.91568       52.47538        6.19345
H         -2.38645       53.89722        5.22032
H         -0.59850       53.03574        8.01252
H         -0.10287       55.31615        4.38542
H          1.11000       54.40634        9.11281
H          1.62400       56.68302        5.50141
H          2.70287       56.24602        8.89360
N          1.30335       52.01374        4.44198
C          2.51608       51.20317        4.51557
C          3.36681       51.66141        5.69367
O          4.43466       52.21656        5.46666
C          3.30408       51.34944        3.18978
C          2.58826       50.69430        2.00196
C          3.40815       50.83288        0.75047
O          3.65659       51.93864        0.29646
O          3.87414       49.73609        0.12262
H          1.42642       53.03466        4.38621
H          2.30113       50.12069        4.63786
H          4.28651       50.83637        3.29835
H          3.49118       52.42729        2.98099
H          1.59268       51.15620        1.83609
H          2.44659       49.61325        2.22329
N          3.00568       51.49580        6.99669
C          1.81086       50.81809        7.49093
C          1.84796       49.33355        7.18865
O          2.84862       48.68840        7.47186
C          1.72611       51.02323        9.01409
C          0.42577       50.48695        9.62666
C          0.36401       50.89861       11.06458
O         -0.58145       51.76469       11.47051
O          1.20677       50.50697       11.85638
H          3.65159       51.89334        7.69887
H          0.90886       51.28961        7.05072
H          1.76162       52.11698        9.20391
H          2.60556       50.56104        9.51667
H          0.36210       49.38109        9.54019
H         -0.44042       50.93080        9.09129
N          0.75656       48.71228        6.66593
C          0.73119       47.29263        6.39319
H         -0.26787       47.00112        6.00414
H          1.49949       47.03813        5.63330
H          0.92599       46.72327        7.32717
H         -0.09976       49.25585        6.48800
Ca        -0.40516       52.65631       13.52916
O          1.51550       51.24657       15.34065
H          1.62466       50.44811       14.76544
H          1.14735       50.89417       16.18922
O         -1.46848       49.94327       14.10096
H         -2.23064       49.97242       14.73199
H         -1.84188       49.54350       13.27624
O         -1.49098       52.36839       16.30809
H         -2.46864       52.46726       16.42535
H         -1.14378       52.21505       17.22187
O          2.56167       53.33500       13.23543
H          3.02037       53.34788       12.35826
H          2.58088       54.27640       13.54158
O          0.38074       54.76847       15.57788
H         -0.25689       55.04010       16.28489
H          1.11905       55.42478       15.64103
O         -0.06849       55.43709       12.08853
H         -0.80171       55.09362       11.51840
H         -0.52806       55.83899       12.86827

Ca 1.0



