%chk=apoCaM-CA-Ng.loop3.water3.frame674.chk
%nprocshared=20
%mem=10GB
%nosave
#b3lyp/svp scf=(tight,noincore,xqc) Test 
#IOP(5/87=12) Density=Current Pop=(MK,readradii) iop(6/33=2) iop(6/42=6)

apoCaM-CA-Ng.loop3.water3.frame674 

   0  1 
C        -20.53546       58.97836       95.96635
C        -20.65883       60.04448       97.01044
O        -21.66030       60.74658       97.02482
H        -19.59067       58.40667       96.08362
H        -21.38447       58.26980       96.07393
H        -20.56013       59.43496       94.95700
N        -19.69432       60.19243       97.95770
C        -19.84459       61.11327       99.06742
C        -19.79217       62.58279       98.61237
O        -18.81702       63.00230       98.00679
C        -18.80841       60.80731      100.16694
C        -19.22413       61.54274      101.39303
O        -19.61107       60.95870      102.53189
O        -19.34501       62.73642      101.31882
H        -18.87814       59.56122       97.94091
H        -20.82943       60.89116       99.53550
H        -17.78584       61.10695       99.84925
H        -18.78967       59.72817      100.39895
N        -20.82428       63.41752       98.92514
C        -20.93022       64.83841       98.56524
C        -19.82510       65.69805       99.19784
O        -19.23522       66.51012       98.49951
C        -22.32924       65.37121       98.98105
C        -23.46082       64.63748       98.22204
C        -24.85863       65.07373       98.67773
C        -25.94066       64.31639       97.88791
N        -27.28287       64.68407       98.33681
H        -21.59599       63.00185       99.46554
H        -20.87264       64.95120       97.45984
H        -22.40376       66.45575       98.74352
H        -22.46344       65.25078      100.07685
H        -23.39473       63.54216       98.38253
H        -23.34691       64.83235       97.13307
H        -24.98343       66.16711       98.52253
H        -24.97382       64.84783       99.76078
H        -25.80436       63.21942       98.02126
H        -25.83925       64.54977       96.80439
H        -27.40690       64.42768       99.34324
H        -27.43837       65.71015       98.20941
H        -27.98801       64.16151       97.76766
N        -19.49896       65.56363      100.51417
C        -18.50940       66.36368      101.24646
C        -17.13825       65.65909      101.35187
O        -16.16727       66.23659      100.88252
C        -19.13553       66.85732      102.58835
C        -19.86407       65.78974      103.37865
O        -19.18917       64.76748      103.91381
O        -21.08028       65.82137      103.47619
H        -20.01055       64.85150      101.03643
H        -18.28440       67.29330      100.67422
H        -19.90189       67.61343      102.31169
H        -18.37373       67.36515      103.21768
N        -16.97772       64.41589      101.88845
C        -15.71953       63.67095      101.91776
C        -15.38740       63.09212      103.28754
O        -14.35576       62.44233      103.39830
H        -17.79303       63.93860      102.24221
H        -14.87128       64.29817      101.56775
H        -15.81111       62.81024      101.21997
N        -16.19671       63.27636      104.36988
C        -15.91618       62.79689      105.72070
C        -17.04851       61.91187      106.26099
O        -18.04555       61.72649      105.58531
C        -15.68963       64.04684      106.60681
C        -16.86810       65.00260      106.58458
N        -16.74794       66.23826      106.03949
O        -17.94333       64.65041      107.04464
H        -17.04560       63.83539      104.26062
H        -14.98413       62.19090      105.73622
H        -14.79433       64.57314      106.20743
H        -15.46293       63.76183      107.65449
H        -15.85726       66.55552      105.62936
H        -17.55557       66.87887      106.00966
N        -16.96134       61.34276      107.49653
C        -18.05023       60.62601      108.16280
C        -18.54151       59.37130      107.45344
O        -17.74660       58.48063      107.19453
H        -16.09299       61.48249      108.03555
H        -18.89506       61.33035      108.31733
H        -17.69522       60.31643      109.16834
N        -19.86728       59.23679      107.13785
C        -20.45748       58.07498      106.46237
C        -20.72187       58.42544      105.01004
O        -20.29827       59.48627      104.58992
C        -21.78130       57.64072      107.15963
C        -21.62071       56.96568      108.49613
C        -20.81413       55.81993      108.61326
C        -22.33813       57.41556      109.61683
C        -20.71675       55.14386      109.83029
C        -22.24797       56.72898      110.83303
C        -21.43732       55.59351      110.94455
O        -21.36585       54.93760      112.12016
H        -20.49779       60.02916      107.33607
H        -19.75187       57.21991      106.42637
H        -22.29278       56.86802      106.55723
H        -22.47985       58.50523      107.21553
H        -20.26885       55.43748      107.76047
H        -22.98884       58.27828      109.54474
H        -20.09146       54.26271      109.90039
H        -22.81870       57.07247      111.68654
H        -20.82254       54.14421      112.23260
N        -21.39015       57.55693      104.18067
C        -21.66033       57.75881      102.75664
C        -22.47851       59.03255      102.51241
O        -22.11884       60.08821      103.00978
C        -20.35426       57.67106      101.91568
C        -20.63709       57.66345      100.38383
C        -19.51332       56.43734      102.30538
C        -21.42276       56.45362       99.85545
H        -21.72127       56.66203      104.56198
H        -22.27380       56.89363      102.43060
H        -19.72853       58.55105      102.14624
H        -19.66653       57.67549       99.84289
H        -21.18940       58.58454      100.10745
H        -18.58934       56.39024      101.69030
H        -19.19722       56.49617      103.36806
H        -20.08541       55.49594      102.17378
H        -21.54712       56.55125       98.75673
H        -20.87890       55.50594      100.04634
H        -22.43500       56.38802      100.29843
N        -23.58691       59.02191      101.72155
C        -24.42180       60.20818      101.52076
C        -25.90096       59.94755      101.79415
O        -26.67385       60.89250      101.74128
C        -24.20102       60.76002      100.10903
O        -24.56079       59.80493       99.14897
H        -23.81283       58.15697      101.20848
H        -24.12054       61.01151      102.22744
H        -23.12134       61.01806      100.01758
H        -24.79375       61.68872       99.95892
H        -24.01706       60.00036       98.34224
N        -26.37197       58.70103      102.09470
C        -27.77165       58.41506      102.38996
C        -28.19645       59.10759      103.67365
O        -27.40405       59.11245      104.60594
C        -27.95065       56.91025      102.56113
H        -25.72038       57.90807      102.11866
H        -28.38976       58.73078      101.52556
H        -27.30093       56.51701      103.36959
H        -28.99317       56.70212      102.83409
H        -27.71007       56.39254      101.60720
N        -29.39568       59.74141      103.83845
C        -30.51605       59.74574      102.89906
C        -31.82214       59.56426      103.66702
O        -32.04510       60.33938      104.58778
C        -30.55070       61.09315      102.17809
H        -29.52322       60.26474      104.71991
H        -30.41110       58.96727      102.12386
H        -30.65858       61.93053      102.90037
H        -29.60936       61.23509      101.60632
H        -31.40182       61.11845      101.46373
N        -32.78195       58.63841      103.36911
C        -32.74797       57.66251      102.28376
C        -31.73250       56.57626      102.54474
O        -30.97715       56.25917      101.63726
C        -34.13281       57.00273      102.09481
C        -35.18491       58.02196      101.62657
C        -36.50434       57.35470      101.37091
O        -36.99958       57.38154      100.25533
O        -37.15394       56.73246      102.37293
H        -33.63511       58.66705      103.95064
H        -32.51716       58.16801      101.31897
H        -34.46035       56.50881      103.03689
H        -34.04691       56.22274      101.30428
H        -34.82998       58.50208      100.68725
H        -35.33198       58.81525      102.38829
N        -31.67933       55.94268      103.75199
C        -30.74632       54.87553      104.05885
H        -30.07696       55.19665      104.88514
H        -31.30902       53.97574      104.38261
H        -30.11816       54.59507      103.18741
H        -32.31943       56.23941      104.50380
Ca       -19.92764       62.63325      104.01581
O        -23.10673       63.06134      104.89683
H        -23.92635       63.41268      104.46673
H        -23.43446       62.57262      105.69289
O        -22.70154       63.15448      101.91329
H        -22.05282       63.88810      102.04482
H        -23.57877       63.60735      101.83720
O        -20.76113       62.91266      106.89306
H        -21.05589       62.65837      107.80300
H        -20.68025       63.89892      106.92242

Ca 1.0



