%chk=apoCaM-CA-Ng.loop1.water1.frame836.chk
%nprocshared=20
%mem=10GB
%nosave
#b3lyp/svp scf=(tight,noincore,xqc) Test 
#IOP(5/87=12) Density=Current Pop=(MK,readradii) iop(6/33=2) iop(6/42=6)

apoCaM-CA-Ng.loop1.water1.frame836 

   0  1 
C         34.62485       -3.97014       84.71856
C         33.65885       -4.41434       83.66012
O         32.97833       -5.40920       83.86667
H         35.20599       -3.08181       84.39332
H         34.07006       -3.71404       85.64514
H         35.33591       -4.79476       84.93626
N         33.52936       -3.71545       82.49671
C         32.61245       -4.12321       81.43339
C         33.04639       -5.45579       80.79977
O         34.05436       -6.01024       81.21635
C         32.39522       -2.96558       80.42816
C         33.59929       -2.48594       79.67392
O         34.82413       -2.98989       79.89329
O         33.45438       -1.63498       78.81048
H         34.08077       -2.85091       82.38279
H         31.61045       -4.28618       81.88772
H         31.97567       -2.09384       80.97724
H         31.63535       -3.28304       79.68452
N         32.30852       -6.05024       79.81229
C         32.57640       -7.39821       79.30298
C         33.15916       -7.33463       77.89566
O         32.49445       -7.68195       76.93025
C         31.28957       -8.25724       79.42678
C         31.52264       -9.74589       79.08630
C         30.24976      -10.58221       79.31552
C         30.40265      -12.06497       78.92170
N         31.42025      -12.76738       79.70559
H         31.49110       -5.55140       79.43078
H         33.33751       -7.91082       79.93207
H         30.48621       -7.83870       78.78095
H         30.94441       -8.20312       80.48347
H         32.33558      -10.13068       79.73649
H         31.83407       -9.84891       78.02666
H         29.43103      -10.15791       78.69397
H         29.94517      -10.51864       80.38258
H         30.64920      -12.14096       77.84737
H         29.42317      -12.57097       79.07091
H         32.36824      -12.36438       79.53391
H         31.18577      -12.72265       80.72330
H         31.44113      -13.77011       79.40816
N         34.46450       -6.96410       77.74284
C         35.19149       -6.93745       76.46635
C         36.68433       -6.73434       76.75618
O         37.00110       -5.81538       77.49841
C         34.61864       -5.86141       75.50333
C         34.73679       -4.46626       76.04240
O         33.73961       -3.87593       76.42686
O         35.94554       -3.88378       76.17049
H         34.98360       -6.74441       78.60762
H         35.04550       -7.90541       75.95850
H         33.54613       -6.09089       75.32972
H         35.12514       -5.91061       74.51621
N         37.68836       -7.52966       76.28033
C         37.57562       -8.63484       75.34360
C         36.74274       -9.77399       75.86960
O         36.96346      -10.21463       76.98864
H         38.64815       -7.29907       76.58452
H         38.59857       -9.03027       75.16031
H         37.18436       -8.26388       74.37162
N         35.77728      -10.32047       75.07690
C         34.86965      -11.37478       75.50207
C         35.17239      -12.66220       74.76007
O         35.39863      -13.65654       75.43161
C         33.42362      -10.91140       75.25610
C         32.37585      -11.90491       75.68135
O         31.20069      -11.64965       75.47756
O         32.70463      -13.06829       76.27855
H         35.67587       -9.96538       74.11333
H         34.98702      -11.56993       76.59317
H         33.28738      -10.70513       74.17330
H         33.25069       -9.96623       75.81168
N         35.14863      -12.73506       73.39404
C         35.44585      -13.94757       72.63537
C         36.94297      -14.16773       72.49697
O         37.44242      -14.14637       71.38045
H         34.86932      -11.89898       72.85964
H         35.03944      -13.81573       71.60740
H         34.92788      -14.82400       73.07945
N         37.72488      -14.34894       73.59752
C         39.18522      -14.43487       73.60642
C         39.82957      -13.21484       72.94328
O         39.11616      -12.34655       72.45774
C         39.68226      -14.62373       75.07196
C         39.32982      -13.43051       75.98214
O         39.11605      -15.79784       75.59641
H         37.25570      -14.42381       74.49616
H         39.49275      -15.32874       73.01921
H         40.78714      -14.74255       75.05847
H         39.62235      -16.02246       76.42048
H         39.73609      -13.60050       77.00023
H         39.76871      -12.49676       75.59093
H         38.23545      -13.28074       76.07747
N         41.18836      -13.09183       72.87249
C         41.84941      -12.02991       72.11287
C         42.76142      -12.59544       71.02235
O         43.08784      -11.84511       70.11385
C         42.52823      -10.97935       73.03501
C         43.61357      -11.61033       73.94186
C         41.44389      -10.24979       73.85484
C         44.32486      -10.59153       74.83701
H         41.77005      -13.78519       73.35903
H         41.07850      -11.47204       71.53578
H         43.00591      -10.21440       72.38308
H         44.37908      -12.09215       73.29692
H         43.16707      -12.38783       74.59794
H         40.95164      -10.94179       74.56119
H         41.86496       -9.40070       74.42789
H         40.66976       -9.82305       73.18133
H         43.62381      -10.14157       75.57028
H         45.12177      -11.10086       75.41766
H         44.78360       -9.78768       74.22398
N         43.15617      -13.90698       70.99602
C         43.75936      -14.54191       69.82735
C         45.20575      -14.92621       70.08706
O         45.53194      -15.35275       71.18549
C         42.91521      -15.77740       69.43502
C         41.44026      -15.39794       69.21841
O         43.43427      -16.33609       68.25571
H         42.96030      -14.52674       71.79184
H         43.74503      -13.84906       68.95740
H         42.97331      -16.52470       70.26151
H         43.01370      -17.22948       68.15117
H         41.34789      -14.63219       68.41963
H         40.85382      -16.29477       68.92896
H         40.99332      -14.99643       70.15367
N         46.12477      -14.80051       69.08183
C         47.55531      -15.06782       69.23383
C         48.39079      -13.82781       68.91507
O         49.57682      -13.84612       69.21695
C         47.95679      -16.24621       68.30279
C         49.42598      -16.68166       68.44845
O         47.70687      -15.88939       66.96601
H         45.78348      -14.51136       68.15375
H         47.76629      -15.35396       70.28791
H         47.31505      -17.11260       68.58459
H         47.72079      -16.72582       66.43197
H         49.62040      -17.56643       67.80653
H         50.12626      -15.88962       68.11391
H         49.64965      -16.95357       69.50108
N         47.87187      -12.72582       68.29463
C         48.69313      -11.59325       67.88032
C         47.82088      -10.46483       67.35560
O         47.03039      -10.67299       66.44427
C         49.75472      -11.99767       66.82216
C         49.17409      -12.54272       65.50630
C         50.29549      -12.92015       64.53084
C         49.76658      -13.35566       63.15392
N         48.95507      -14.57192       63.22240
H         46.86638      -12.68244       68.08234
H         49.24750      -11.22221       68.77094
H         50.43372      -12.76370       67.24796
H         50.37770      -11.10397       66.59818
H         48.55769      -11.76658       65.01279
H         48.54365      -13.42834       65.72853
H         50.92199      -13.72774       64.96801
H         50.93926      -12.02702       64.37115
H         50.64157      -13.54397       62.49366
H         49.17004      -12.53178       62.70168
H         48.69045      -14.85493       62.25139
H         49.50256      -15.34599       63.66338
H         48.07554      -14.40275       63.75979
N         47.91286       -9.23172       67.91480
C         47.14439       -8.08095       67.47355
C         46.05336       -7.73320       68.48719
O         44.90433       -7.72407       68.06771
C         48.10719       -6.92746       67.11864
C         47.37389       -5.65718       66.66778
C         48.35308       -4.59933       66.24420
O         48.32048       -4.15219       65.10880
O         49.26910       -4.13452       67.11575
H         48.59045       -9.09974       68.67422
H         46.60941       -8.32105       66.52477
H         48.76418       -7.27783       66.29028
H         48.76456       -6.68206       67.97400
H         46.76427       -5.25925       67.50698
H         46.69698       -5.89771       65.81890
N         46.24688       -7.44306       69.80896
C         47.50755       -7.45754       70.51640
H         48.22145       -6.73900       70.07607
H         47.34015       -7.16033       71.57235
H         47.92275       -8.48139       70.55620
H         45.41291       -7.20875       70.36986
Ca        36.16304       -2.81560       78.11699
O         37.21961       -5.00267       81.18137
H         37.73791       -5.53241       81.83808
H         36.42785       -4.68964       81.68663

Ca 1.0



