%chk=apoCaM-CA-Ng.loop2.water4.frame1233.chk
%nprocshared=20
%mem=10GB
%nosave
#b3lyp/svp scf=(tight,noincore,xqc) Test 
#IOP(5/87=12) Density=Current Pop=(MK,readradii) iop(6/33=2) iop(6/42=6)

apoCaM-CA-Ng.loop2.water4.frame1233 

   -2  1 
C         69.88532       35.76363       24.77441
C         69.03341       34.66990       24.18532
O         68.27310       34.99350       23.28415
H         70.51036       36.20071       23.96727
H         69.21962       36.55854       25.17188
H         70.56198       35.46009       25.58687
N         69.05458       33.35939       24.57277
C         69.87517       32.74423       25.61763
C         68.97380       32.10979       26.67289
O         67.76115       32.25652       26.59145
C         70.88836       31.74531       24.98037
C         70.28287       30.62910       24.16454
O         70.47723       29.33488       24.50123
O         69.64525       30.88999       23.15862
H         68.40921       32.73010       24.07101
H         70.49189       33.48200       26.15621
H         71.52555       31.30647       25.77525
H         71.56814       32.31942       24.31451
N         69.50649       31.37884       27.69715
C         68.72710       30.72639       28.74439
C         67.57521       29.92550       28.16187
O         66.43413       30.12845       28.55581
C         68.26212       31.74579       29.79230
H         70.52500       31.23233       27.72624
H         69.40074       30.01938       29.27900
H         69.14164       32.26884       30.22403
H         67.57497       32.49530       29.34865
H         67.73844       31.21967       30.62117
N         67.81526       28.98245       27.21139
C         66.75285       28.16290       26.62916
C         67.32042       26.97502       25.85671
O         68.52588       26.77633       25.81698
C         65.74207       29.01539       25.79439
C         66.28359       29.66598       24.55573
O         65.54317       30.32830       23.84643
O         67.56655       29.52806       24.20965
H         68.79644       28.83289       26.93155
H         66.17718       27.70926       27.46486
H         65.31014       29.81624       26.42560
H         64.89280       28.37568       25.48142
N         66.47272       26.09651       25.26700
C         66.88317       24.88673       24.58418
C         67.75758       25.09913       23.32663
O         67.55610       26.35164       22.73361
H         65.45871       26.26059       25.33639
H         65.94647       24.36938       24.27770
H         67.41661       24.20500       25.28199
N         67.43279       23.99715       22.39985
C         68.03642       24.05432       21.05404
C         67.33420       25.03344       20.11054
O         67.82828       25.22292       19.00702
C         68.01215       22.62501       20.43940
C         66.62447       22.00693       20.38874
N         65.65630       22.49389       19.57698
O         66.38046       21.03570       21.08986
H         67.74653       23.12283       22.88446
H         69.09797       24.36431       21.15432
H         68.64698       21.97807       21.08600
H         68.46627       22.61135       19.42617
H         65.83350       23.28806       18.94968
H         64.72180       22.05819       19.55864
N         66.15463       25.64031       20.43842
C         65.40455       26.49862       19.53231
C         66.09167       27.81403       19.20749
O         67.21537       28.02424       19.64135
H         65.71241       25.43434       21.34472
H         64.43770       26.74539       20.01813
H         65.20148       25.92996       18.60263
N         65.47952       28.78846       18.46273
C         64.12056       28.69135       17.91983
C         64.02182       27.53495       16.94680
O         63.18137       26.66892       17.14871
C         63.65564       30.01170       17.24769
C         63.55198       31.16216       18.25833
O         64.51928       30.37415       16.20152
H         66.01155       29.65674       18.29423
H         63.40823       28.50861       18.75593
H         62.63048       29.82749       16.84467
H         64.00559       30.97530       15.60022
H         64.54113       31.40972       18.69479
H         63.15534       32.06946       17.75471
H         62.85377       30.89099       19.07903
N         64.90227       27.42187       15.91262
C         64.96355       26.25866       15.03118
C         66.26451       25.51399       15.31065
O         67.24258       26.17090       15.64225
C         64.80735       26.64927       13.53332
C         65.93613       27.59621       13.04250
C         63.41166       27.25827       13.30366
C         65.88958       27.87522       11.53971
H         65.61931       28.15320       15.80114
H         64.12668       25.57965       15.28107
H         64.86440       25.70681       12.94307
H         66.91849       27.12571       13.24673
H         65.89859       28.56579       13.58170
H         63.22236       27.43956       12.22694
H         62.62558       26.55505       13.65268
H         63.30259       28.21660       13.85498
H         64.97302       28.43124       11.25849
H         66.76173       28.50130       11.25566
H         65.93532       26.92326       10.97046
N         66.38272       24.15375       15.30290
C         65.36985       23.18563       14.90244
C         65.96520       22.27315       13.84636
O         66.97375       21.63739       14.12644
C         64.95058       22.37170       16.14518
C         63.89008       21.32848       15.89310
O         63.40465       21.16421       14.78470
O         63.46665       20.56427       16.91733
H         67.28350       23.76432       15.62251
H         64.46621       23.67298       14.49117
H         64.55144       23.07625       16.90535
H         65.84420       21.86586       16.57295
N         65.37732       22.12342       12.62331
C         65.86371       21.14753       11.65548
C         65.56147       21.58226       10.22540
O         64.40044       21.85655        9.94620
C         65.16172       19.79232       11.89172
C         65.82326       18.73261       11.04528
C         65.20614       18.24191        9.88309
C         67.09808       18.25937       11.40123
C         65.86644       17.30399        9.08193
C         67.74798       17.31433       10.60546
C         67.13540       16.84073        9.44316
H         64.48745       22.61191       12.43802
H         66.95199       21.00163       11.80755
H         64.08217       19.89846       11.64075
H         65.21751       19.47802       12.95660
H         64.23096       18.60428        9.58280
H         67.58840       18.62830       12.29414
H         65.39833       16.94138        8.17632
H         68.73002       16.95693       10.88688
H         67.64624       16.11725        8.82158
N         66.50184       21.58966        9.22902
C         67.90441       21.21803        9.36071
C         68.76677       22.38160        9.83844
O         69.98059       22.22954        9.85514
C         68.26060       20.79392        7.93121
C         67.48476       21.79712        7.10452
C         66.14969       21.82692        7.84058
H         68.07119       20.33546       10.00768
H         69.34726       20.72163        7.71252
H         67.80530       19.79238        7.74358
H         67.98378       22.78418        7.22680
H         67.40458       21.56811        6.02064
H         65.63698       22.79902        7.67622
H         65.49503       20.99004        7.50767
N         68.21927       23.56171       10.25120
C         68.99549       24.71668       10.69133
C         68.62413       25.93908        9.85644
O         67.70353       25.84718        9.05523
C         68.68796       24.95565       12.18929
C         69.28960       23.86078       13.08344
C         70.79191       23.91758       13.09394
O         71.42023       25.02537       13.53421
O         71.44912       22.95945       12.72138
H         67.19501       23.66407       10.27645
H         70.08151       24.53756       10.54333
H         67.58386       24.97754       12.32330
H         69.06893       25.93062       12.55104
H         68.93730       22.86099       12.75040
H         68.95249       24.01964       14.12448
N         69.27597       27.13624        9.95135
C         70.43871       27.40628       10.77535
H         71.26785       27.75802       10.12725
H         70.19451       28.20259       11.50893
H         70.81231       26.52046       11.31849
H         68.93730       27.91980        9.37178
Ca        69.33811       27.67889       23.39356
O         71.07679       26.28241       21.33259
H         71.35846       25.33421       21.36968
H         70.52770       26.34971       20.51122
O         72.80359       28.11600       23.17587
H         73.19632       28.67923       22.46260
H         73.49223       28.09660       23.88695
O         70.32627       29.19475       20.83169
H         70.91296       29.98531       20.93651
H         69.66605       29.46311       20.14489
O         71.14710       25.23816       24.71388
H         70.70981       25.01650       25.57418
H         72.03454       25.59388       24.97156

Ca 1.0



