%chk=apoCaM-CA-Ng.loop3.water2.frame541.chk
%nprocshared=20
%mem=10GB
%nosave
#b3lyp/svp scf=(tight,noincore,xqc) Test 
#IOP(5/87=12) Density=Current Pop=(MK,readradii) iop(6/33=2) iop(6/42=6)

apoCaM-CA-Ng.loop3.water2.frame541 

   0  1 
C         61.03907       18.29424       75.40047
C         59.65796       17.88505       75.82058
O         58.69342       18.44171       75.31599
H         61.81504       17.69469       75.92298
H         61.15311       18.12984       74.30827
H         61.20296       19.36593       75.63262
N         59.48866       16.88543       76.72763
C         58.18005       16.37866       77.11862
C         57.40960       17.44990       77.87023
O         57.84281       17.83367       78.94880
C         58.38879       15.12052       77.99283
C         57.19147       14.24796       78.18608
O         57.32704       13.19056       78.78079
O         56.01416       14.51511       77.60201
H         60.33283       16.43083       77.10996
H         57.64861       16.07906       76.18729
H         58.82256       15.40178       78.97608
H         59.12062       14.46676       77.47033
N         56.28141       18.01403       77.34714
C         55.54226       19.05312       78.05842
C         54.93629       18.44462       79.31114
O         55.26472       18.87300       80.40905
C         54.47052       19.69462       77.13728
C         53.79959       20.93100       77.77162
C         52.74167       21.60353       76.87048
C         53.30786       22.15536       75.54819
N         52.27889       22.87507       74.79555
H         55.96300       17.71885       76.41127
H         56.25566       19.86648       78.32616
H         53.69905       18.94747       76.85793
H         54.98893       20.02233       76.21241
H         54.57827       21.68344       78.02602
H         53.29456       20.62635       78.71353
H         52.31015       22.45442       77.44304
H         51.92228       20.88482       76.65226
H         53.69070       21.32437       74.91956
H         54.14910       22.85062       75.76334
H         51.94422       23.70152       75.34257
H         52.68786       23.21574       73.89559
H         51.47373       22.24238       74.58254
N         54.04532       17.41791       79.20518
C         53.41914       16.77013       80.35540
C         54.38381       15.94639       81.21295
O         54.00142       15.59795       82.31979
C         52.20502       15.91968       79.90480
C         52.51145       14.93116       78.80441
O         53.39743       13.94343       78.98747
O         51.94949       15.02820       77.72525
H         53.77359       17.12123       78.25650
H         53.01354       17.57358       81.01080
H         51.43394       16.61945       79.51553
H         51.76656       15.38817       80.77691
N         55.63157       15.59253       80.79161
C         56.58165       14.84689       81.61728
C         56.18524       13.41706       81.97613
O         56.96452       12.78247       82.67715
H         55.94777       15.89627       79.86354
H         56.76097       15.41775       82.55329
H         57.54931       14.78508       81.07552
N         55.02525       12.83373       81.55890
C         54.60634       11.48000       81.91665
C         54.38436       10.61154       80.68930
O         54.41610       11.10307       79.56844
C         53.28598       11.57126       82.70789
C         53.49975       12.26142       84.02819
N         52.95826       13.47580       84.27417
O         54.17867       11.71616       84.88569
H         54.37912       13.37580       80.98339
H         55.38257       10.97639       82.53584
H         52.85252       10.56841       82.91121
H         52.54919       12.13060       82.08672
H         52.39863       13.96019       83.55774
H         53.11936       13.94461       85.17766
N         54.16136        9.27792       80.85188
C         53.85505        8.33890       79.78425
C         54.88176        8.33582       78.67568
O         56.06991        8.24970       78.95210
H         54.20159        8.89094       81.80904
H         52.84916        8.56312       79.36948
H         53.81230        7.31900       80.22480
N         54.46900        8.36681       77.37475
C         55.39015        8.35584       76.24633
C         56.11155        9.74002       76.15017
O         55.10418       10.67215       75.87262
C         54.62988        8.08748       74.91069
C         53.80616        6.82298       74.85131
C         52.41744        6.91607       74.64429
C         54.39929        5.55307       74.94459
C         51.63706        5.76573       74.52667
C         53.61315        4.39880       74.82340
C         52.22920        4.50381       74.61012
O         51.46015        3.40434       74.47618
H         53.45614        8.34970       77.18248
H         56.12173        7.52917       76.39234
H         55.35397        8.04780       74.06933
H         53.95189        8.94007       74.71548
H         51.93513        7.88236       74.56061
H         55.46722        5.45481       75.09202
H         50.57108        5.85821       74.35902
H         54.07994        3.42389       74.88476
H         51.82690        2.50981       74.50954
N         57.07069        9.72822       75.02771
C         58.21725       10.66352       75.06966
C         57.84434       12.12042       74.78261
O         57.20688       12.75241       75.60275
C         59.06806       10.58887       76.38551
C         60.35575       11.46864       76.29718
C         59.44035        9.15140       76.78975
C         61.36685       11.04765       75.21886
H         57.47930        8.76730       74.93892
H         58.87556       10.32379       74.24298
H         58.45342       10.99732       77.21845
H         60.87550       11.44539       77.27927
H         60.07725       12.52699       76.10862
H         60.04511        9.16728       77.72278
H         58.53215        8.55412       77.00638
H         60.01792        8.63956       75.99400
H         60.93524       11.11331       74.20043
H         62.24216       11.72979       75.24807
H         61.73702       10.01716       75.39368
N         58.36122       12.75327       73.69150
C         58.38619       14.21240       73.52459
C         57.05173       14.90036       73.22118
O         57.08093       16.11100       73.03909
C         59.37942       14.57076       72.39983
O         60.65747       14.06586       72.69270
H         58.91277       12.18219       73.03379
H         58.79731       14.65706       74.45863
H         59.47199       15.67349       72.29973
H         59.00587       14.18600       71.42108
H         60.80313       13.27261       72.11363
N         55.85772       14.24818       73.14976
C         54.61698       14.91040       72.73252
C         53.72434       15.18779       73.94252
O         53.66009       14.33179       74.81261
C         53.93326       14.03648       71.67554
H         55.81642       13.24419       73.37557
H         54.84331       15.86720       72.22282
H         53.03983       14.52186       71.25301
H         54.63116       13.85008       70.83319
H         53.62273       13.06526       72.09374
N         53.03320       16.36085       74.13326
C         52.90265       17.43972       73.14925
C         52.07666       16.96550       71.95280
O         51.37480       15.97402       72.09602
C         52.19871       18.65138       73.78779
H         52.53998       16.47319       75.03398
H         53.92216       17.75208       72.84317
H         52.79360       19.02007       74.64648
H         52.07533       19.49347       73.07794
H         51.18813       18.36715       74.15166
N         52.07842       17.58079       70.73075
C         52.82022       18.78608       70.39174
C         53.91025       18.45054       69.39077
O         55.07499       18.64104       69.71252
C         51.83200       19.84384       69.84482
C         52.43756       21.23414       69.59000
C         52.73922       21.97961       70.86532
O         52.14462       23.01663       71.11441
O         53.66496       21.52895       71.73198
H         51.51233       17.15055       69.98140
H         53.31409       19.19107       71.28572
H         50.97714       19.96481       70.54625
H         51.41038       19.46654       68.88806
H         51.68044       21.82353       69.02666
H         53.34619       21.16150       68.95564
N         53.60995       17.94135       68.16094
C         54.61478       17.59387       67.17482
H         55.64895       17.76404       67.54164
H         54.51315       16.52090       66.90881
H         54.46289       18.20630       66.26155
H         52.62531       17.78984       67.89861
Ca        55.02855       12.57458       77.09176
O         53.51737       11.60503       73.99291
H         54.23458       11.15468       73.47760
H         52.80889       10.92366       74.09365
O         52.44377       10.82848       77.27548
H         51.86153       10.95192       78.06627
H         51.82390       10.82246       76.50411

Ca 1.0



