%chk=apoCaM-CA-Ng.loop4.water6.frame887.chk
%nprocshared=20
%mem=10GB
%nosave
#b3lyp/svp scf=(tight,noincore,xqc) Test 
#IOP(5/87=12) Density=Current Pop=(MK,readradii) iop(6/33=2) iop(6/42=6)

apoCaM-CA-Ng.loop4.water6.frame887 

   -3  1 
C         26.30426       10.19148       -1.59630
C         26.96642        9.67042       -2.83626
O         26.54716        8.63947       -3.34127
H         25.46418        9.52952       -1.29222
H         27.04472       10.21878       -0.76883
H         25.91121       11.21314       -1.77434
N         28.02454       10.33743       -3.38374
C         28.77887        9.85143       -4.53456
C         27.87064        9.71720       -5.74769
O         27.58790        8.61131       -6.18558
C         29.53827        8.56368       -4.14276
C         30.48111        8.08698       -5.21018
O         31.35890        8.82307       -5.63279
O         30.39401        6.82438       -5.66755
H         28.33007       11.22000       -2.94561
H         29.56564       10.59893       -4.78358
H         28.83572        7.74592       -3.87905
H         30.15478        8.79847       -3.24969
N         27.39513       10.84351       -6.34908
C         26.49079       10.85244       -7.49617
C         27.25024       11.41540       -8.69265
O         27.77505       12.51317       -8.56389
C         25.25520       11.75054       -7.18076
C         24.54875       11.30234       -5.87462
C         24.27438       11.74787       -8.37322
C         23.45277       12.27109       -5.42035
H         27.70700       11.75644       -5.98112
H         26.12051        9.83122       -7.70943
H         25.62075       12.79075       -7.02414
H         25.28960       11.27221       -5.04755
H         24.12532       10.28194       -5.99565
H         24.77558       12.08817       -9.30297
H         23.87359       10.72542       -8.54245
H         23.42832       12.44244       -8.20641
H         23.03234       11.92674       -4.45250
H         23.87861       13.28766       -5.27505
H         22.61981       12.32432       -6.14856
N         27.35754       10.78879       -9.90339
C         26.75865        9.50479      -10.26848
C         27.40957        8.38149       -9.49340
O         26.72521        7.54620       -8.91910
C         26.96770        9.18908      -11.77260
C         26.60076       10.32894      -12.68248
O         27.43874       10.78906      -13.44318
O         25.36338       10.85677      -12.65954
H         27.88740       11.29317      -10.63134
H         25.65917        9.54834      -10.09780
H         26.34763        8.30267      -12.03593
H         28.03081        8.92707      -11.96862
N         28.76794        8.32876       -9.44495
C         29.52494        7.29819       -8.77559
C         29.66358        6.07763       -9.64111
O         30.08594        6.21774      -10.78081
H         29.30788        9.09370       -9.87784
H         29.11265        7.08957       -7.76936
H         30.56108        7.67862       -8.64208
N         29.42797        4.83536       -9.13579
C         29.72919        3.61457       -9.87691
C         28.53995        2.67328      -10.01399
O         28.71828        1.62988      -10.62817
C         30.98178        2.94611       -9.25589
C         30.91390        2.69220       -7.77271
O         31.77376        3.32096       -6.94802
O         30.11458        1.90229       -7.30713
H         29.12306        4.74994       -8.15361
H         30.01886        3.85251      -10.92414
H         31.83431        3.64031       -9.42438
H         31.21870        1.99961       -9.78818
N         27.29252        2.96281       -9.53166
C         26.16031        2.06049       -9.73172
C         26.29769        0.73409       -8.99772
O         25.45263       -0.12977       -9.17787
H         27.11772        3.85570       -9.04799
H         26.04473        1.87686      -10.82097
H         25.22882        2.54705       -9.36685
N         27.30244        0.53491       -8.10309
C         27.48624       -0.63270       -7.25627
C         26.28441       -0.86439       -6.36190
O         25.94276       -2.00503       -6.07884
C         27.96364       -1.89102       -8.01060
C         29.26943       -1.63420       -8.78274
C         29.90238       -2.92944       -9.22745
N         30.10611       -3.20110      -10.53648
O         30.25615       -3.74037       -8.38355
H         27.94923        1.30471       -7.92277
H         28.31136       -0.37287       -6.55364
H         27.18319       -2.27519       -8.70276
H         28.16033       -2.66844       -7.23883
H         30.00594       -1.12338       -8.12543
H         29.05693       -0.96839       -9.64708
H         29.82216       -2.53506      -11.26834
H         30.55376       -4.08679      -10.81771
N         25.63884        0.20809       -5.82452
C         24.61465        0.10894       -4.79248
C         25.06728        0.82216       -3.52307
O         24.55714        0.48802       -2.46374
C         23.23519        0.62798       -5.27848
C         23.26384        2.11195       -5.68321
C         22.71585       -0.22243       -6.44620
H         25.91532        1.14152       -6.15288
H         24.48317       -0.95946       -4.50880
H         22.51225        0.51631       -4.43957
H         23.59588        2.74469       -4.83404
H         23.94115        2.28165       -6.54638
H         22.24482        2.44449       -5.97481
H         23.38883       -0.14409       -7.32561
H         22.64641       -1.28891       -6.14274
H         21.70104        0.11610       -6.74584
N         25.99670        1.82797       -3.55165
C         26.50038        2.50621       -2.36761
C         28.02767        2.39264       -2.35332
O         28.59385        1.88308       -3.31100
C         25.94298        3.94639       -2.40276
C         26.12728        4.74338       -1.13890
N         26.61284        6.00388       -1.18593
O         25.77507        4.27168       -0.06841
H         26.36710        2.17275       -4.44407
H         26.10816        2.00470       -1.45692
H         24.84223        3.85632       -2.53225
H         26.33690        4.49230       -3.28907
H         26.87281        6.43206       -2.08536
H         26.70780        6.56303       -0.32551
N         28.75812        2.76246       -1.26341
C         30.20960        2.53692       -1.19234
C         30.73550        2.67068        0.23148
O         29.97617        3.02295        1.12249
C         30.99411        3.48371       -2.14665
C         30.99587        4.92384       -1.67734
C         29.81112        5.66902       -1.64859
C         32.19166        5.53006       -1.25144
C         29.81068        6.98699       -1.18208
C         32.19237        6.85027       -0.79214
C         31.00177        7.58105       -0.74947
O         31.01262        8.85007       -0.29579
H         28.24518        3.12125       -0.44772
H         30.39975        1.48284       -1.49316
H         30.60985        3.42578       -3.18645
H         32.04356        3.12273       -2.18916
H         28.89313        5.22404       -1.99080
H         33.12373        4.97966       -1.26308
H         28.88861        7.55239       -1.16056
H         33.11894        7.30245       -0.46212
H         30.20852        9.38718       -0.24799
N         32.05141        2.41817        0.51166
C         32.61270        2.62045        1.83916
C         33.65346        3.72813        1.78816
O         34.73743        3.48022        1.27873
C         33.23530        1.33243        2.41080
C         32.17602        0.28744        2.77780
C         32.82169       -0.92653        3.38208
O         32.55293       -1.27028        4.65654
O         33.59528       -1.60453        2.72484
H         32.68460        2.11825       -0.24388
H         31.81402        2.90228        2.52890
H         33.77856        1.58939        3.34827
H         33.96959        0.91480        1.68561
H         31.58749       -0.01070        1.88497
H         31.48434        0.73378        3.52678
N         33.42357        4.99596        2.25295
C         32.12029        5.49836        2.69552
C         31.59292        4.83432        3.95758
O         32.32029        4.10222        4.61610
C         32.15654        7.03345        2.86556
C         33.03127        7.49781        4.04228
C         33.10407        8.99338        4.08159
O         32.62547        9.66764        5.14396
O         33.60987        9.60442        3.15396
H         34.20089        5.66884        2.16192
H         31.40802        5.28237        1.86840
H         31.12476        7.41886        3.01771
H         32.53981        7.47506        1.92203
H         34.06475        7.10380        3.95326
H         32.59512        7.12574        4.99433
N         30.29120        5.02385        4.31388
C         29.66179        4.37263        5.44360
H         28.81294        3.75590        5.07740
H         30.35988        3.70801        5.99366
H         29.27049        5.14019        6.14205
H         29.69697        5.63553        3.73400
Ca        32.64609       12.38312        3.46049
O         33.78349       15.02910        4.31935
H         33.65773       15.06175        5.30069
H         33.96136       15.96688        4.05736
O         32.16781       12.73022        6.31678
H         32.75972       12.92504        7.08573
H         31.27673       12.57072        6.71702
O         32.59578       11.37304        0.55703
H         33.05153       10.49850        0.64419
H         31.75770       11.26850        1.07432
O         35.10065       11.46071        5.52460
H         35.65811       10.78411        5.06412
H         35.15611       11.21855        6.48287
O         35.63066       12.93831        2.84395
H         36.08332       12.99325        1.96543
H         36.25826       13.37056        3.47627
O         32.14878       14.52840        1.36809
H         31.97000       15.18273        2.08943
H         33.12618       14.58383        1.21894

Ca 1.0



