%chk=apoCaM-CA-Ng.loop1.water3.frame1131.chk
%nprocshared=20
%mem=10GB
%nosave
#b3lyp/svp scf=(tight,noincore,xqc) Test 
#IOP(5/87=12) Density=Current Pop=(MK,readradii) iop(6/33=2) iop(6/42=6)

apoCaM-CA-Ng.loop1.water3.frame1131 

   0  1 
C         92.11936       45.19600       64.80265
C         93.34422       45.37053       63.95825
O         94.10329       46.29927       64.19968
H         91.21431       45.23090       64.15966
H         92.16544       44.21804       65.32335
H         92.04605       46.00650       65.55965
N         93.57537       44.52921       62.90908
C         94.71895       44.67678       62.01316
C         94.26604       45.27938       60.69943
O         94.58081       44.76858       59.63260
C         95.48755       43.34091       61.86384
C         94.70461       42.20756       61.23433
O         93.43376       42.36818       60.81413
O         95.24198       41.12185       61.08847
H         92.87224       43.80332       62.71039
H         95.43108       45.41881       62.43648
H         95.82427       43.01570       62.87143
H         96.39146       43.51786       61.24076
N         93.50437       46.40657       60.72530
C         93.06255       47.09821       59.52695
C         94.25856       47.72820       58.82321
O         94.45820       47.39498       57.66373
C         91.92513       48.10626       59.82975
C         90.70364       47.37335       60.42373
C         89.52505       48.31433       60.68613
C         88.34626       47.53421       61.29042
N         87.20222       48.41014       61.53576
H         93.21567       46.77786       61.64113
H         92.59844       46.35363       58.83866
H         91.61871       48.58782       58.87517
H         92.24414       48.90704       60.52384
H         90.98247       46.89071       61.38450
H         90.37541       46.57975       59.71630
H         89.20831       48.78381       59.72950
H         89.83797       49.11264       61.39402
H         88.66274       47.06867       62.25115
H         88.03977       46.72132       60.59441
H         86.87061       48.82646       60.63556
H         86.42612       47.84775       61.95433
H         87.46740       49.17056       62.20285
N         95.14557       48.59579       59.40773
C         95.11505       49.08704       60.78692
C         96.32823       48.57352       61.56928
O         97.15200       47.86673       61.00641
C         95.02946       50.63149       60.77504
C         96.27820       51.23683       60.20681
O         97.44434       50.97146       60.81912
O         96.24510       51.92299       59.20010
H         95.93276       48.91828       58.82182
H         94.22974       48.72181       61.32127
H         94.89821       51.01336       61.80818
H         94.14062       50.94429       60.18271
N         96.48008       48.86818       62.89350
C         97.57017       48.34061       63.70835
C         98.89868       49.05798       63.53713
O         98.98690       50.03308       62.81391
H         95.74118       49.40921       63.36727
H         97.67390       47.25044       63.52473
H         97.30262       48.47703       64.77841
N         99.98590       48.61375       64.23103
C        101.28123       49.30358       64.31090
C        101.67185       49.44409       65.79233
O        100.95420       48.90141       66.62213
C        102.32684       48.47614       63.53663
C        101.99355       48.40289       62.07482
O        101.93470       49.42367       61.40710
O        101.78237       47.20935       61.48942
H         99.88190       47.73206       64.75737
H        101.21039       50.31820       63.86077
H        102.37935       47.45131       63.96421
H        103.33106       48.92017       63.60240
N        102.75848       50.12660       66.26946
C        103.71653       50.93105       65.53252
C        103.06980       52.14559       64.93094
O        102.37147       52.85761       65.63974
H        102.90914       50.10076       67.29108
H        104.29609       50.34245       64.80019
H        104.46500       51.31381       66.26157
N        103.32827       52.49678       63.64343
C        102.79828       53.72032       63.05996
C        101.31117       53.56540       62.79004
O        100.93744       52.66611       62.05577
C        103.53851       54.09608       61.75430
C        105.04311       54.32851       62.00159
O        102.95266       55.27007       61.24736
H        103.97555       51.91166       63.09305
H        102.98146       54.56701       63.76043
H        103.42448       53.27539       61.01662
H        103.54482       55.62315       60.53684
H        105.54532       54.59335       61.04569
H        105.19222       55.16236       62.71970
H        105.53929       53.41825       62.39254
N        100.41849       54.44857       63.32155
C         98.98480       54.49478       63.03608
C         98.72572       54.75029       61.55883
O         98.83745       53.83798       60.75602
C         98.20103       53.23037       63.51085
C         98.37284       52.91667       65.01676
C         96.70036       53.31042       63.14517
C         97.82131       53.98869       65.96174
H        100.78450       55.18815       63.94033
H         98.57932       55.36564       63.59414
H         98.60619       52.36593       62.96002
H         99.44851       52.75855       65.24170
H         97.84525       51.96121       65.23690
H         96.55620       53.39640       62.04880
H         96.17655       52.38533       63.46686
H         96.21155       54.18943       63.61030
H         97.95938       53.65677       67.01147
H         98.35764       54.94928       65.82894
H         96.73484       54.14716       65.80307
N         98.30669       55.97258       61.14325
C         97.75733       56.21561       59.81286
C         98.73762       56.89266       58.86885
O         98.30581       57.32324       57.80639
C         96.40253       56.96679       59.94424
C         96.53476       58.39328       60.49702
O         95.53569       56.24329       60.78121
H         98.31457       56.74443       61.82311
H         97.51279       55.25014       59.31562
H         95.94111       57.06521       58.93396
H         95.18458       55.48195       60.24961
H         96.93814       58.40633       61.52930
H         97.19093       59.00707       59.84582
H         95.53225       58.87005       60.53010
N        100.07901       56.92662       59.12086
C        101.04807       57.51323       58.19872
C        101.93385       56.43003       57.59834
O        102.60118       55.71408       58.32721
C        101.88966       58.59840       58.90579
C        101.01789       59.77616       59.35301
O        102.55305       58.05200       60.01663
H        100.44333       56.48742       59.98028
H        100.52870       58.01795       57.35461
H        102.63448       58.97825       58.16622
H        103.33986       58.62946       60.19803
H        101.65291       60.55537       59.82504
H        100.50759       60.22780       58.47531
H        100.25231       59.44748       60.08725
N        101.99538       56.27797       56.24542
C        102.83013       55.31307       55.53750
C        102.40252       53.88258       55.81116
O        103.21137       53.07928       56.25549
C        104.34327       55.52666       55.78687
C        104.79306       56.96641       55.49787
C        106.32084       57.10591       55.37952
C        107.10475       56.64773       56.61892
N        108.54133       56.84186       56.41502
H        101.42636       56.90513       55.65609
H        102.67228       55.47418       54.44730
H        104.88223       54.83707       55.09912
H        104.61937       55.26080       56.82953
H        104.39837       57.64005       56.28983
H        104.37167       57.29205       54.52224
H        106.55072       58.17498       55.17914
H        106.66294       56.51041       54.50475
H        106.91782       55.56788       56.80607
H        106.77526       57.22479       57.51029
H        109.06010       56.49749       57.25472
H        108.86312       56.30293       55.57756
H        108.75132       57.85735       56.27874
N        101.13910       53.48569       55.48723
C        100.68369       52.10231       55.57532
C         99.51425       51.91610       56.53545
O         99.68210       51.09690       57.42318
C        100.37385       51.54308       54.17699
C        101.62923       51.53673       53.29342
C        101.33081       50.94881       51.94680
O        101.48803       51.61606       50.93714
O        100.89840       49.67726       51.84495
H        100.51008       54.18834       55.08317
H        101.50242       51.45630       55.96977
H         99.58856       52.13515       53.67403
H        100.01285       50.49590       54.28897
H        102.42697       50.93088       53.77592
H        102.00356       52.57650       53.16952
N         98.30003       52.54210       56.47785
C         97.87766       53.54542       55.52741
H         96.82891       53.83847       55.74956
H         98.48325       54.46363       55.62712
H         97.88940       53.15048       54.49700
H         97.60401       52.28054       57.18952
Ca        99.52679       51.28389       60.07264
O         99.59746       48.17790       59.21294
H         98.78836       48.72349       59.04685
H         99.64054       48.09330       60.19794
O        101.77205       52.74577       59.27073
H        101.28294       53.57148       59.03179
H        102.19536       52.44474       58.43174
O        102.08497       49.71070       58.41425
H        101.93515       49.03029       57.71107
H        103.06653       49.73199       58.53905

Ca 1.0



