%chk=apoCaM-CA-Ng.loop2.water3.frame179.chk
%nprocshared=20
%mem=10GB
%nosave
#b3lyp/svp scf=(tight,noincore,xqc) Test 
#IOP(5/87=12) Density=Current Pop=(MK,readradii) iop(6/33=2) iop(6/42=6)

apoCaM-CA-Ng.loop2.water3.frame179 

   -2  1 
C         98.74200       52.75332       26.70269
C        100.00437       52.68752       25.89644
O        100.02225       52.03770       24.86139
H         97.93320       52.16293       26.22216
H         98.93034       52.34037       27.71669
H         98.41316       53.80929       26.79616
N        101.11759       53.33336       26.33820
C        102.40539       53.29196       25.65486
C        103.45344       52.57004       26.49295
O        104.60817       52.59957       26.10626
C        102.86441       54.71333       25.25511
C        103.20128       55.61334       26.41554
O        102.25655       55.98045       27.30069
O        104.33705       56.04389       26.53976
H        101.05312       53.85024       27.22753
H        102.32313       52.72566       24.70063
H        102.07993       55.19435       24.63238
H        103.77171       54.61043       24.61733
N        103.11565       51.87932       27.62603
C        104.01565       51.10413       28.47599
C        104.60366       49.89363       27.76072
O        104.15684       48.79305       28.04715
C        105.07544       51.97888       29.15197
H        102.12967       51.86592       27.92241
H        103.38388       50.69680       29.30055
H        104.57669       52.78658       29.72898
H        105.67699       51.36528       29.85629
H        105.75804       52.44691       28.41528
N        105.63198       49.99754       26.86842
C        106.23324       48.84884       26.19540
C        106.18318       48.95635       24.67246
O        106.67307       48.04237       24.02242
C        107.67852       48.64863       26.71241
C        108.65297       49.76742       26.42934
O        108.32922       50.75751       25.79299
O        109.91509       49.66431       26.88680
H        106.05363       50.91622       26.70070
H        105.68267       47.91848       26.45657
H        108.09483       47.71596       26.27420
H        107.62901       48.50795       27.81444
N        105.61192       50.01675       24.02104
C        105.59597       50.12936       22.56855
C        104.76906       49.06088       21.87306
O        104.86340       48.96701       20.65771
H        105.20425       50.79271       24.55369
H        106.64758       50.06551       22.21256
H        105.19777       51.12209       22.26573
N        103.94795       48.21619       22.56173
C        103.24554       47.09556       21.93944
C        102.27066       47.54989       20.85937
O        101.35613       48.31079       21.13812
C        102.51678       46.25757       23.00949
C        103.48693       45.72847       24.04372
N        104.49466       44.89495       23.69394
O        103.36573       46.06470       25.21058
H        103.85007       48.34332       23.57889
H        104.00946       46.43766       21.47207
H        102.00526       45.39482       22.53109
H        101.74477       46.88880       23.50389
H        104.61950       44.59156       22.71804
H        105.15642       44.54980       24.40469
N        102.43633       47.10229       19.58310
C        101.61747       47.48062       18.44240
C        100.19581       46.96082       18.49706
O        100.00162       45.78994       18.79100
H        103.22689       46.46923       19.38644
H        102.06990       47.00334       17.54552
H        101.65356       48.57854       18.27908
N         99.16339       47.75166       18.07396
C         97.81139       47.22810       17.84150
C         96.96077       47.17759       19.10351
O         95.87318       46.61502       19.04145
C         97.08624       47.99593       16.69945
C         96.76485       49.46511       17.01995
O         97.81233       47.89612       15.49829
H         99.39797       48.69711       17.74200
H         97.91409       46.18341       17.46991
H         96.10881       47.49500       16.52247
H         98.61200       48.47928       15.56798
H         97.68269       50.05814       17.20818
H         96.22673       49.92249       16.16294
H         96.10513       49.52789       17.90643
N         97.37447       47.73391       20.27556
C         96.62682       47.65014       21.53216
C         97.45242       46.87877       22.54485
O         98.54686       46.45027       22.18765
C         96.18151       49.05940       22.05023
C         97.25552       49.94678       22.74433
C         95.44461       49.83786       20.94830
C         98.46744       50.36362       21.91541
H         98.28140       48.21120       20.28218
H         95.68696       47.07557       21.37203
H         95.42688       48.87302       22.84627
H         97.62681       49.43494       23.65585
H         96.74840       50.87626       23.08581
H         95.01793       50.77858       21.35690
H         96.13298       50.10104       20.12224
H         94.60905       49.23133       20.53790
H         98.16633       50.86933       20.97572
H         99.08381       51.07080       22.50718
H         99.11548       49.49610       21.70883
N         97.03757       46.68432       23.83204
C         97.90607       46.03639       24.80653
C         97.15375       45.00715       25.65233
O         97.33452       44.97077       26.85708
C         98.63732       47.15145       25.59199
C         99.79074       46.68212       26.43147
O        101.03923       47.14056       26.22413
O         99.61026       45.90847       27.35374
H         96.15134       47.10470       24.15415
H         98.69234       45.46159       24.27036
H         97.90601       47.70066       26.22472
H         99.05898       47.87208       24.85716
N         96.30632       44.10561       25.07435
C         95.74850       42.95155       25.78879
C         95.14405       43.32149       27.14340
O         94.24039       44.14486       27.17485
C         94.73178       42.19898       24.89608
C         94.29825       40.87016       25.48894
C         94.72110       39.66973       24.88973
C         93.47746       40.80321       26.63306
C         94.34978       38.43586       25.43173
C         93.10875       39.56682       27.17095
C         93.54724       38.38418       26.57306
H         96.10773       44.20381       24.06718
H         96.60181       42.26408       25.93984
H         95.24109       42.00465       23.92674
H         93.84090       42.82789       24.67879
H         95.34935       39.68591       24.00815
H         93.11390       41.69964       27.11408
H         94.68789       37.51883       24.96729
H         92.48207       39.52604       28.05276
H         93.26284       37.42779       26.99226
N         95.57396       42.73033       28.30948
C         95.06542       43.03017       29.64183
C         95.15983       44.49512       30.01601
O         94.16010       45.06374       30.43074
C         95.96656       42.20299       30.57431
C         96.26102       40.99711       29.72290
C         96.53329       41.64030       28.36756
H         94.01272       42.67108       29.70519
H         96.94664       42.70966       30.72588
H         95.52774       41.99238       31.57287
H         97.07255       40.33385       30.09051
H         95.31917       40.40477       29.65047
H         97.55943       42.06169       28.28780
H         96.36048       40.85298       27.60312
N         96.34399       45.16765       29.90284
C         96.50696       46.56282       30.30848
C         95.59736       47.49821       29.52063
O         95.38926       48.61868       29.96619
C         97.96015       47.03694       30.09881
C         99.02712       46.27356       30.91403
C        100.39267       46.71845       30.46542
O        100.69149       47.90240       30.49195
O        101.24277       45.83469       29.90502
H         97.15513       44.65796       29.52444
H         96.24394       46.63688       31.38704
H         98.03915       48.11607       30.35908
H         98.17703       46.93804       29.01649
H         98.95179       45.18036       30.74076
H         98.88982       46.47090       31.99758
N         95.05562       47.13264       28.32565
C         94.18798       48.00409       27.56681
H         93.27337       48.22888       28.15512
H         94.71731       48.94785       27.31838
H         93.88796       47.50435       26.62055
H         95.27653       46.21617       27.92195
Ca       102.23086       46.65418       28.06182
O        102.11555       43.55852       27.18787
H        101.47174       42.81753       27.31759
H        102.68810       43.26228       26.43619
O        104.34435       46.56513       30.16225
H        105.01766       46.00170       30.61905
H        104.16760       47.30871       30.79141
O        105.00852       45.07022       27.52767
H        105.26576       44.32402       26.93025
H        105.86558       45.40090       27.89651

Ca 1.0



