%chk=apoCaM-CA-Ng.loop3.water2.frame955.chk
%nprocshared=20
%mem=10GB
%nosave
#b3lyp/svp scf=(tight,noincore,xqc) Test 
#IOP(5/87=12) Density=Current Pop=(MK,readradii) iop(6/33=2) iop(6/42=6)

apoCaM-CA-Ng.loop3.water2.frame955 

   0  1 
C         77.43876      110.17091       36.77669
C         77.15088      111.61616       36.49279
O         76.23680      111.89765       35.73373
H         78.27047      110.05697       37.50410
H         76.53280      109.70321       37.21889
H         77.70333      109.64199       35.83969
N         77.86503      112.59429       37.11358
C         77.52547      114.01303       37.01434
C         77.75666      114.55583       35.59775
O         78.41411      113.89245       34.80763
C         78.31299      114.76243       38.11827
C         77.74974      116.06635       38.58813
O         78.33894      116.67866       39.46207
O         76.57180      116.53752       38.15846
H         78.61355      112.30185       37.76162
H         76.45424      114.10088       37.25120
H         79.36969      114.88062       37.79439
H         78.30743      114.14273       39.04200
N         77.20367      115.73955       35.19701
C         77.37587      116.33194       33.86859
C         78.04186      117.70784       33.96695
O         77.95837      118.48978       33.03059
C         76.01631      116.36971       33.12599
C         74.93950      117.25928       33.77215
C         73.62645      117.18506       32.97671
C         72.55349      118.09673       33.58627
N         71.29054      117.98791       32.85629
H         76.61654      116.25631       35.85878
H         78.03834      115.70231       33.23547
H         75.63347      115.32686       33.06285
H         76.18900      116.72671       32.08615
H         75.29659      118.31102       33.79593
H         74.73781      116.92366       34.81000
H         73.25801      116.13604       32.97887
H         73.80690      117.49446       31.92392
H         72.90681      119.15167       33.55826
H         72.38108      117.81054       34.64464
H         70.59034      118.63416       33.28723
H         71.42633      118.25378       31.85414
H         70.92494      117.00964       32.91567
N         78.79336      118.02453       35.05999
C         79.49308      119.29326       35.28227
C         80.44865      119.11346       36.45985
O         81.63710      119.33883       36.28072
C         78.51718      120.50050       35.38191
C         77.36041      120.29806       36.31210
O         76.25361      120.07854       35.84711
O         77.50705      120.32017       37.64417
H         78.90944      117.28958       35.77028
H         80.14241      119.50931       34.40391
H         78.08231      120.63193       34.36812
H         79.05026      121.44542       35.62004
N         80.02664      118.55638       37.63216
C         80.93805      118.09844       38.67530
C         80.63258      118.65535       40.04504
O         81.33204      118.28008       40.97697
H         79.02969      118.33654       37.74204
H         81.99401      118.33592       38.42815
H         80.85665      116.99122       38.73391
N         79.63496      119.55819       40.25680
C         79.36699      120.17699       41.54889
C         77.91858      119.97121       41.97200
O         77.13926      119.40226       41.21921
C         79.66192      121.68413       41.40848
C         81.09401      121.92284       40.99121
N         81.38270      122.50232       39.80150
O         82.00275      121.57952       41.73258
H         79.07060      119.88124       39.46192
H         80.02126      119.74858       42.34034
H         79.47945      122.21820       42.36344
H         78.97270      122.10684       40.64298
H         80.63369      122.78870       39.15411
H         82.36209      122.65642       39.51897
N         77.48031      120.45446       43.16941
C         76.08215      120.45365       43.57219
C         75.49433      119.06810       43.72178
O         75.94664      118.31400       44.57098
H         78.15743      120.91256       43.79890
H         75.50816      121.03917       42.82225
H         75.98018      120.97641       44.54755
N         74.46422      118.67797       42.91657
C         73.79955      117.37993       42.99476
C         74.19663      116.52482       41.80065
O         75.09340      116.91728       41.06885
C         72.26021      117.56347       43.04090
C         71.72004      118.32897       44.22095
C         70.81988      119.38804       44.01344
C         72.04079      117.94983       45.53570
C         70.24034      120.04618       45.10139
C         71.47197      118.62043       46.62226
C         70.56356      119.66261       46.41058
O         69.99969      120.27796       47.46926
H         74.15144      119.32460       42.17765
H         74.12026      116.81655       43.89642
H         71.77593      116.57258       43.11832
H         71.91302      118.02247       42.09007
H         70.53928      119.68508       43.01023
H         72.72107      117.13001       45.72444
H         69.53037      120.84439       44.92473
H         71.72491      118.31728       47.63032
H         69.34564      120.98378       47.36512
N         73.58322      115.31950       41.57028
C         73.91248      114.37741       40.50278
C         73.70115      114.99069       39.11667
O         74.15244      116.09737       38.87952
C         75.33989      113.78678       40.69549
C         75.61606      112.59691       39.73427
C         75.57927      113.34824       42.15499
C         74.73300      111.35639       39.91999
H         72.84365      115.00785       42.21234
H         73.20999      113.52657       40.61141
H         76.08445      114.58182       40.47528
H         76.67539      112.28217       39.85664
H         75.47167      112.92797       38.69615
H         76.60014      112.92601       42.26842
H         75.50509      114.21379       42.84590
H         74.83376      112.59292       42.47814
H         73.66527      111.57942       39.72826
H         75.04083      110.58220       39.18679
H         74.84457      110.92571       40.93460
N         73.04112      114.31611       38.13251
C         72.84699      114.87085       36.79004
C         71.38454      114.99759       36.41225
O         71.11199      115.56567       35.36348
C         73.56368      113.99590       35.75460
O         73.03268      112.69787       35.77804
H         72.69942      113.36440       38.33127
H         73.28067      115.89202       36.72531
H         74.64238      113.97614       35.99945
H         73.44639      114.42798       34.73709
H         73.67939      112.11861       35.30008
N         70.38599      114.46073       37.17044
C         68.99267      114.52756       36.75450
C         68.46248      115.95289       36.84277
O         69.06468      116.75496       37.54395
C         68.15444      113.60298       37.63729
H         70.61577      113.93763       38.02554
H         68.94575      114.15625       35.70766
H         67.09709      113.63156       37.33919
H         68.52226      112.55875       37.53707
H         68.22648      113.90958       38.70211
N         67.36592      116.38928       36.15212
C         66.66419      115.62286       35.12766
C         65.18873      116.01421       35.06460
O         64.91315      117.20345       34.98506
C         67.30840      115.92468       33.77132
H         67.14101      117.39410       36.22994
H         66.78663      114.53960       35.28660
H         66.80241      115.34065       32.97241
H         67.23983      117.00641       33.52841
H         68.38066      115.63404       33.78479
N         64.16648      115.10679       35.00106
C         64.35132      113.66083       34.97934
C         64.68144      113.12485       36.36287
O         65.26846      112.05544       36.45112
C         63.09627      112.96631       34.40719
C         63.32569      111.47350       34.11920
C         62.11758      110.85930       33.47634
O         62.19632      110.37551       32.35824
O         60.94321      110.82836       34.13436
H         63.21162      115.47865       34.87040
H         65.17150      113.43869       34.26146
H         62.84839      113.45591       33.43875
H         62.23524      113.10589       35.09842
H         63.54124      110.91792       35.05403
H         64.19752      111.36941       33.43487
N         64.30349      113.79810       37.48988
C         64.57673      113.32804       38.83348
H         65.16566      114.09606       39.37710
H         63.61743      113.16654       39.36883
H         65.14867      112.37675       38.84395
H         63.78010      114.68176       37.40802
Ca        76.26263      118.71273       38.55197
O         73.53065      118.55695       36.98640
H         73.91253      119.01820       36.19969
H         72.55957      118.74226       36.93386
O         72.90990      118.98074       39.76792
H         72.77307      119.82892       40.25920
H         72.00047      118.70752       39.48770

Ca 1.0



