%chk=apoCaM-CA-Ng.loop4.water3.frame204.chk
%nprocshared=20
%mem=10GB
%nosave
#b3lyp/svp scf=(tight,noincore,xqc) Test 
#IOP(5/87=12) Density=Current Pop=(MK,readradii) iop(6/33=2) iop(6/42=6)

apoCaM-CA-Ng.loop4.water3.frame204 

   -3  1 
C         34.07633       45.72364       43.76020
C         34.44287       46.79421       42.77470
O         34.89212       46.45231       41.69117
H         33.27238       45.08438       43.33811
H         34.96748       45.09333       43.96560
H         33.72148       46.15639       44.71846
N         34.27479       48.11558       43.08374
C         34.64886       49.22526       42.21138
C         34.28441       49.01204       40.75053
O         35.16448       48.81016       39.93459
C         36.08599       49.72022       42.48836
C         37.14528       48.65642       42.45621
O         37.36052       48.01332       41.44451
O         37.88170       48.42206       43.55958
H         33.89440       48.35914       44.01053
H         34.04331       50.11276       42.50384
H         36.09879       50.16334       43.50914
H         36.33670       50.53644       41.77432
N         32.97577       49.10281       40.37347
C         32.42810       49.07907       39.01364
C         32.79227       50.34645       38.22836
O         31.87579       51.09862       37.92467
C         32.68974       47.75601       38.23909
C         31.91048       47.70540       36.89036
C         32.33239       46.52490       39.09210
C         30.37861       47.80768       37.00062
H         32.28580       49.24214       41.12818
H         31.32795       49.12492       39.16085
H         33.77140       47.68423       38.00273
H         32.14575       46.74322       36.38946
H         32.26046       48.52430       36.22672
H         32.95812       46.48891       40.00338
H         31.27002       46.54154       39.41020
H         32.52296       45.59136       38.51946
H         30.05853       48.78277       37.41808
H         29.92797       47.73083       35.98962
H         29.95837       46.98958       37.62021
N         34.07441       50.68617       37.88833
C         34.39234       51.94461       37.22311
C         33.87283       51.95804       35.78831
O         33.06528       52.82971       35.49915
C         35.89695       52.31277       37.32703
C         36.32464       52.52859       38.75365
O         37.23626       51.87183       39.22996
O         35.72680       53.47308       39.50419
H         34.85646       50.07694       38.13351
H         33.87736       52.76570       37.77363
H         36.07130       53.26463       36.77990
H         36.56056       51.54915       36.89835
N         34.24247       51.07396       34.81217
C         35.17141       49.96560       34.99826
C         35.47161       49.21231       33.72100
O         34.88773       49.52990       32.69415
H         33.81730       51.22010       33.88409
H         34.74639       49.26941       35.74492
H         36.13146       50.36303       35.31397
N         36.37489       48.18950       33.64624
C         37.20976       47.59702       34.69826
C         36.39723       46.98117       35.87069
O         36.28952       47.86590       36.95334
C         38.36525       48.52091       35.14780
C         39.40996       47.82136       35.98447
O         40.48581       48.51236       36.40521
O         39.30939       46.63881       36.27394
H         36.47630       47.75025       32.71638
H         37.72351       46.73779       34.21114
H         37.98827       49.38295       35.72696
H         38.87633       48.90581       34.24040
N         35.05770       46.50574       35.48659
C         34.98924       45.60844       34.32089
C         33.81228       45.99959       33.46621
O         32.90064       46.64666       33.96245
H         34.58133       46.05704       36.30338
H         34.90557       44.54364       34.62781
H         35.89178       45.66089       33.68973
N         33.77378       45.67405       32.14217
C         32.61790       46.00885       31.31270
C         31.38862       45.20457       31.71681
O         30.30244       45.52104       31.25047
C         32.91054       45.84051       29.80771
C         33.23420       44.39685       29.38127
C         33.42793       44.31138       27.88989
N         34.41153       45.00904       27.27408
O         32.68698       43.59999       27.22815
H         34.59040       45.20287       31.72829
H         32.39964       47.09006       31.46958
H         33.75818       46.50913       29.54420
H         32.01819       46.18843       29.24062
H         32.39497       43.72977       29.67328
H         34.15656       44.03337       29.87850
H         35.05172       45.61153       27.81113
H         34.53386       44.94756       26.25257
N         31.48856       44.14830       32.57506
C         30.35868       43.36978       33.05273
C         30.46617       41.90528       32.65298
O         29.57193       41.16348       33.03399
C         30.21230       43.53107       34.59586
C         29.79122       44.96328       34.94662
C         31.48649       43.15680       35.37301
H         32.41451       43.86660       32.92207
H         29.40771       43.72801       32.59877
H         29.39118       42.86569       34.94272
H         30.55848       45.69506       34.62381
H         28.83172       45.21331       34.44537
H         29.63937       45.05916       36.04210
H         32.32113       43.84950       35.13668
H         31.29742       43.23006       36.46505
H         31.80150       42.11808       35.14269
N         31.47321       41.41338       31.85910
C         31.49477       40.01491       31.43004
C         32.74758       39.25851       31.84387
O         32.71487       38.03799       31.74286
C         31.34644       39.91417       29.89516
C         30.15250       40.66018       29.34937
N         28.90454       40.43086       29.81914
O         30.31870       41.48342       28.46114
H         32.20187       42.04334       31.49873
H         30.64485       39.46911       31.88950
H         31.25197       38.84218       29.61569
H         32.26252       40.31549       29.40615
H         28.73772       39.75642       30.57852
H         28.10055       40.94780       29.43312
N         33.91076       39.87857       32.20679
C         35.15664       39.13806       32.41557
C         35.84925       39.57829       33.68950
O         35.88088       40.77713       33.92688
C         36.13986       39.42164       31.25605
C         35.49182       39.43733       29.89019
C         34.81509       38.32246       29.36560
C         35.55919       40.61740       29.12886
C         34.20624       38.40093       28.10513
C         34.96011       40.69033       27.87404
C         34.27778       39.58800       27.35731
O         33.69470       39.68513       26.14606
H         33.95736       40.90747       32.21847
H         34.97612       38.03990       32.41938
H         36.96384       38.67415       31.28734
H         36.60097       40.42054       31.41862
H         34.74627       37.40226       29.93210
H         36.07599       41.49034       29.50818
H         33.67582       37.54308       27.71170
H         35.02453       41.61032       27.30733
H         33.20284       38.95318       25.74933
N         36.61040       38.70134       34.41479
C         37.54160       39.07296       35.48870
C         36.88408       39.34880       36.83879
O         37.37282       38.82348       37.83033
C         38.50014       40.23035       35.09630
C         39.26431       39.94997       33.79095
C         40.23921       41.05255       33.48715
O         40.13449       41.70145       32.45827
O         41.24614       41.31886       34.34130
H         36.64312       37.72100       34.09478
H         38.21088       38.19752       35.65793
H         39.23859       40.35862       35.91896
H         37.95577       41.19282       35.00445
H         38.54576       39.85885       32.95018
H         39.82662       38.99617       33.87597
N         35.82184       40.19155       36.97772
C         35.29083       40.61352       38.27422
C         34.72255       39.46980       39.10129
O         34.44015       39.69992       40.26967
C         34.16304       41.66319       38.10207
C         34.55263       42.89242       37.27624
C         35.62654       43.71885       37.89328
O         36.67350       43.89785       37.29067
O         35.36300       44.44769       38.99065
H         35.40485       40.58303       36.13670
H         36.13249       41.07406       38.83916
H         33.80593       42.00450       39.09885
H         33.30954       41.17641       37.57966
H         33.66722       43.54880       37.16122
H         34.85708       42.60658       36.25116
N         34.47854       38.23678       38.57049
C         33.89926       37.14831       39.33206
H         32.93145       36.85693       38.87289
H         34.58683       36.27825       39.31225
H         33.71091       37.42116       40.39201
H         34.67537       38.05176       37.57728
Ca        36.35455       46.42022       38.69683
O         39.54743       45.97541       39.30056
H         39.97904       45.32327       39.90712
H         40.29745       46.37194       38.79029
O         38.40275       48.73655       38.98117
H         39.11948       49.27789       38.56906
H         37.62129       49.34173       39.01219
O         37.52915       44.08589       40.88020
H         37.18489       43.16355       40.77262
H         37.73984       44.16370       41.84411

Ca 1.0



