%chk=apoCaM-CA-Ng.loop2.water4.frame713.chk
%nprocshared=20
%mem=10GB
%nosave
#b3lyp/svp scf=(tight,noincore,xqc) Test 
#IOP(5/87=12) Density=Current Pop=(MK,readradii) iop(6/33=2) iop(6/42=6)

apoCaM-CA-Ng.loop2.water4.frame713 

   -2  1 
C         74.03865        3.48767      -11.77675
C         75.49780        3.46303      -12.14237
O         75.87371        4.08284      -13.12656
H         73.44180        3.07676      -12.61935
H         73.83216        2.86625      -10.87884
H         73.71102        4.52693      -11.57152
N         76.37628        2.72551      -11.40961
C         77.78026        2.55998      -11.76947
C         78.56712        3.85921      -11.63869
O         78.57689        4.44852      -10.56806
C         78.42414        1.47616      -10.87262
C         79.80419        1.04906      -11.31539
O         80.45545        0.10302      -10.61414
O         80.33047        1.51913      -12.31227
H         76.01030        2.20000      -10.59980
H         77.81953        2.17274      -12.81241
H         77.78736        0.56567      -10.89793
H         78.46905        1.83872       -9.82223
N         79.34012        4.29643      -12.67315
C         80.27285        5.42270      -12.56920
C         79.54257        6.76403      -12.50663
O         78.34802        6.77875      -12.77013
C         81.20253        5.37039      -13.79703
H         79.34112        3.73100      -13.53669
H         80.88532        5.27491      -11.65420
H         81.71993        4.38719      -13.82198
H         80.61044        5.48056      -14.73063
H         81.98919        6.13692      -13.80947
N         80.15161        7.95673      -12.20483
C         81.53463        8.13240      -11.75126
C         81.76637        7.51314      -10.38337
O         80.84876        7.47615       -9.57913
C         81.95478        9.62603      -11.74085
C         81.15422       10.54767      -10.85366
O         81.48528       11.85165      -10.79619
O         80.21030       10.14273      -10.19582
H         79.56781        8.80399      -12.28607
H         82.23245        7.67933      -12.46993
H         81.88506       10.01743      -12.77904
H         83.02058        9.69060      -11.42799
N         82.99891        7.04096      -10.04409
C         83.32426        6.48814       -8.73518
C         83.81180        5.05647       -8.84474
O         83.82133        4.51723       -9.94275
H         83.75804        7.09238      -10.74104
H         82.45890        6.52741       -8.04610
H         84.13532        7.11150       -8.30382
N         84.28518        4.35891       -7.76818
C         84.34807        4.88653       -6.40418
C         82.96735        4.94831       -5.76343
O         82.00713        4.49145       -6.36838
C         85.29147        4.02488       -5.52472
C         84.72961        2.66362       -5.16858
N         84.49740        2.33854       -3.87399
O         84.48028        1.85202       -6.04663
H         84.67543        3.42300       -7.95581
H         84.80594        5.89799       -6.44660
H         85.49216        4.58096       -4.58453
H         86.27106        3.90539       -6.03637
H         84.69708        3.00661       -3.11478
H         84.11069        1.41610       -3.62588
N         82.81167        5.44711       -4.50253
C         81.54743        5.41081       -3.78315
C         81.04203        6.77369       -3.36811
O         80.00001        6.81282       -2.72813
H         83.63355        5.82280       -4.00580
H         81.69411        4.80240       -2.86401
H         80.75143        4.92050       -4.38185
N         81.70612        7.93241       -3.65679
C         81.22018        9.22953       -3.18122
C         79.91666        9.61457       -3.88342
O         79.56643        8.98138       -4.86618
C         82.32047       10.31218       -3.29425
C         83.55910        9.91998       -2.46273
O         82.68459       10.49244       -4.63823
H         82.59328        7.88843       -4.17744
H         80.99391        9.11983       -2.09721
H         81.91028       11.26198       -2.88164
H         83.15676       11.36458       -4.69285
H         84.32260       10.72405       -2.50178
H         83.27553        9.75843       -1.40049
H         84.03272        8.98841       -2.83933
N         79.11223       10.60674       -3.39640
C         77.77097       10.87856       -3.92710
C         77.70881       12.24958       -4.58842
O         78.04005       13.24819       -3.96600
C         76.69166       10.73387       -2.80759
C         75.28141       11.09052       -3.36551
C         76.71021        9.30046       -2.23646
C         74.14806       11.00390       -2.34354
H         79.42745       11.14219       -2.57316
H         77.50491       10.12578       -4.70014
H         76.93203       11.44173       -1.98377
H         75.03449       10.43236       -4.22458
H         75.29046       12.14045       -3.72730
H         76.44085        8.56132       -3.02210
H         77.71269        9.04578       -1.83510
H         75.99962        9.19772       -1.39121
H         74.36353       11.65477       -1.47047
H         73.20359       11.34674       -2.81802
H         73.98823        9.96061       -2.00507
N         77.21453       12.34384       -5.85906
C         77.04722       13.56577       -6.63231
C         75.58698       13.83816       -6.99784
O         75.34860       14.90105       -7.55559
C         77.81915       13.40747       -7.95240
C         79.29694       13.28018       -7.74931
O         79.90402       12.08378       -7.88025
O         79.95868       14.26617       -7.46782
H         76.92986       11.48210       -6.32479
H         77.41777       14.44170       -6.05480
H         77.63587       14.25698       -8.64641
H         77.43806       12.49135       -8.45403
N         74.56065       12.96974       -6.72946
C         73.16468       13.28321       -7.03510
C         72.49601       12.14558       -7.82051
O         71.47257       11.66485       -7.36308
C         72.47510       13.49801       -5.66291
C         71.05092       14.01042       -5.63618
C         70.49076       14.79088       -6.66682
C         70.27727       13.73920       -4.49311
C         69.18636       15.28447       -6.54612
C         68.97388       14.22701       -4.38196
C         68.42944       15.00283       -5.40595
H         74.74836       12.08574       -6.23817
H         73.10562       14.21594       -7.63074
H         73.07153       14.21266       -5.05700
H         72.51919       12.52543       -5.11972
H         71.05118       15.04068       -7.55525
H         70.68673       13.14816       -3.68242
H         68.76363       15.89412       -7.33407
H         68.39028       14.00960       -3.49658
H         67.42305       15.38980       -5.31248
N         72.98780       11.62872       -8.99221
C         72.40123       10.47799       -9.68031
C         72.20984        9.21948       -8.83461
O         71.52941        8.31505       -9.29965
C         73.44456       10.14470      -10.75546
C         73.98968       11.50689      -11.10233
C         74.11307       12.16668       -9.72433
H         71.42499       10.81010      -10.10058
H         74.28863        9.58998      -10.28036
H         73.06756        9.53432      -11.60453
H         74.92366       11.50752      -11.70430
H         73.19152       12.02560      -11.68040
H         75.04309       11.89177       -9.19221
H         74.05302       13.26765       -9.86178
N         72.84810        9.04423       -7.63847
C         72.74218        7.80918       -6.86645
C         71.37790        7.69157       -6.19188
O         71.05273        6.60997       -5.72145
C         73.84551        7.66367       -5.77800
C         75.28854        7.39241       -6.27832
C         76.07906        8.56214       -6.79359
O         77.36442        8.38734       -7.15828
O         75.61172        9.67972       -6.80564
H         73.44695        9.79415       -7.29563
H         72.86200        6.95207       -7.56656
H         73.58752        6.74557       -5.20530
H         73.82105        8.50998       -5.05749
H         75.27135        6.58199       -7.03691
H         75.86955        7.02804       -5.40306
N         70.54489        8.76078       -6.06124
C         69.26017        8.67918       -5.40600
H         68.59967        7.97934       -5.95787
H         69.38824        8.33577       -4.35793
H         68.78359        9.68392       -5.39173
H         70.83027        9.67733       -6.40777
Ca        78.73781       10.15955       -7.54892
O         78.11210        7.08693       -9.46665
H         78.03324        6.36328       -8.79538
H         77.25441        7.06497       -9.95807
O         77.07090       10.26311      -10.09182
H         76.57043       10.18709       -9.24228
H         76.87810        9.41486      -10.56183
O         80.01366        6.99157       -6.87989
H         80.17838        6.09791       -7.26820
H         79.95149        6.81791       -5.91040
O         82.07290        9.86896       -7.80549
H         82.72250        9.21933       -7.43798
H         82.40509       10.75190       -7.50515

Ca 1.0



