%chk=apoCaM-CA-Ng.loop4.water4.frame556.chk
%nprocshared=20
%mem=10GB
%nosave
#b3lyp/svp scf=(tight,noincore,xqc) Test 
#IOP(5/87=12) Density=Current Pop=(MK,readradii) iop(6/33=2) iop(6/42=6)

apoCaM-CA-Ng.loop4.water4.frame556 

   -3  1 
C         49.67016       12.80020       70.79426
C         48.86520       11.80647       70.01010
O         48.47419       10.78740       70.55642
H         50.66492       12.93227       70.31895
H         49.14199       13.77737       70.80783
H         49.81420       12.45800       71.84087
N         48.57865       12.05722       68.70136
C         47.81046       11.19528       67.80139
C         46.32625       11.05390       68.16994
O         45.61117       10.41998       67.40496
C         48.42800        9.77925       67.65264
C         49.93218        9.69219       67.36919
O         50.69271       10.04033       68.49072
O         50.31978       10.52166       66.31184
H         48.95357       12.92790       68.29273
H         47.84201       11.68018       66.79955
H         47.90255        9.26655       66.81815
H         48.23654        9.18200       68.56057
N         45.78664       11.57280       69.31407
C         44.38638       11.36067       69.70013
C         43.44525       12.08636       68.73815
O         43.91867       12.95853       68.02217
C         44.14766       11.81623       71.18574
C         44.35816       13.34439       71.38268
C         45.01387       10.97255       72.14050
C         44.06225       13.82467       72.80499
H         46.39278       12.09185       69.95314
H         44.19218       10.26817       69.63811
H         43.10423       11.60691       71.46991
H         43.66445       13.88783       70.70607
H         45.39334       13.64878       71.12850
H         44.76636       11.18045       73.20054
H         44.80638        9.89870       71.97235
H         46.09707       11.15240       71.99047
H         44.16707       14.92911       72.84953
H         43.02679       13.55273       73.10010
H         44.78126       13.39383       73.53114
N         42.10018       11.84975       68.65572
C         41.36306       10.77102       69.31400
C         41.70768        9.43574       68.68780
O         42.09107        8.51660       69.39778
C         39.83955       10.99105       69.17488
C         39.40751       12.27436       69.82935
O         38.85763       13.14390       69.17254
O         39.61971       12.46842       71.14537
H         41.56190       12.47159       68.03069
H         41.55783       10.74469       70.39858
H         39.29861       10.15404       69.66994
H         39.54555       11.00355       68.10218
N         41.56200        9.26124       67.34373
C         41.73539        7.98971       66.66881
C         40.60697        7.05526       67.02932
O         39.45551        7.42936       66.85171
H         41.29491       10.06975       66.76229
H         42.73876        7.56348       66.88923
H         41.67094        8.15893       65.57262
N         40.85651        5.80802       67.51368
C         39.78964        4.86774       67.85570
C         38.95855        5.29117       69.06829
O         38.00411        4.58629       69.36740
C         40.33873        3.41796       67.98421
C         41.58523        3.24225       68.81870
O         41.60236        3.52780       70.12819
O         42.60122        2.81101       68.29671
H         41.83976        5.50849       67.58865
H         39.07318        4.82323       67.00413
H         40.59522        3.07893       66.95660
H         39.53828        2.74027       68.35470
N         39.21244        6.41900       69.80208
C         38.39811        6.80511       70.94968
C         38.54244        5.86053       72.12926
O         37.85421        6.05324       73.11961
H         39.98765        7.04172       69.54753
H         37.33403        6.86590       70.63457
H         38.70930        7.81339       71.30119
N         39.44421        4.83998       72.10561
C         39.71585        3.90871       73.18730
C         40.29105        4.64208       74.39242
O         40.03077        4.24426       75.51897
C         38.48231        3.02784       73.50653
C         37.94236        2.32184       72.24458
C         36.73816        1.44894       72.50555
N         36.14095        0.80639       71.47455
O         36.29070        1.32068       73.63607
H         40.02425        4.72025       71.27748
H         40.52184        3.22655       72.83172
H         37.67382        3.65478       73.93885
H         38.76979        2.26071       74.25859
H         38.74358        1.69527       71.79656
H         37.63617        3.08879       71.50357
H         36.49887        0.90856       70.51316
H         35.31474        0.21077       71.63411
N         41.09466        5.73649       74.21120
C         41.69857        6.49805       75.30435
C         43.21198        6.60477       75.16867
O         43.80986        7.24697       76.02318
C         41.12252        7.94865       75.36028
C         41.46074        8.78598       74.10812
C         39.61164        7.95442       75.60256
H         41.26596        6.06734       73.25055
H         41.48203        6.00822       76.27887
H         41.58538        8.45953       76.23471
H         40.99440        8.36151       73.19547
H         41.09431        9.82628       74.23712
H         42.55909        8.84519       73.95152
H         39.07690        7.49963       74.74841
H         39.36710        7.39282       76.52847
H         39.25340        8.99938       75.72439
N         43.90137        6.07150       74.11836
C         45.29727        6.39925       73.86031
C         46.18394        5.19169       74.06826
O         45.77704        4.08564       73.73972
C         45.42802        6.89533       72.39817
C         46.75138        7.55458       72.06866
N         47.03959        7.88618       70.79280
O         47.56530        7.80805       72.94300
H         43.42256        5.47199       73.42959
H         45.62888        7.22401       74.52937
H         44.63153        7.63441       72.17433
H         45.27407        6.02701       71.71968
H         46.37983        7.68684       70.02718
H         47.94430        8.32410       70.57594
N         47.45471        5.35604       74.53213
C         48.44808        4.28614       74.57923
C         49.75794        4.82662       75.13238
O         50.17254        5.90675       74.72836
C         48.71538        3.73363       73.16034
C         49.71511        2.60460       73.18922
C         51.07400        2.86285       72.95158
C         49.30067        1.29051       73.46439
C         52.00612        1.82445       72.98822
C         50.23402        0.24902       73.48676
C         51.58828        0.51168       73.25030
O         52.47697       -0.50148       73.27699
H         47.74069        6.30524       74.81706
H         48.07414        3.46335       75.22712
H         49.08810        4.55843       72.51450
H         47.79424        3.35747       72.67167
H         51.41188        3.87195       72.75197
H         48.25599        1.07125       73.65066
H         53.05139        2.04297       72.81174
H         49.90456       -0.76297       73.68785
H         53.42064       -0.36057       73.11419
N         50.49721        4.09096       76.00943
C         51.74283        4.57402       76.58947
C         52.91387        3.68954       76.18284
O         52.91306        2.53851       76.59993
C         51.63075        4.54164       78.12934
C         50.48679        5.40347       78.67356
C         50.39606        5.26427       80.16711
O         50.16427        4.17554       80.67049
O         50.56354        6.33984       80.95867
H         50.16356        3.15205       76.27714
H         51.92082        5.61313       76.28442
H         52.58907        4.88744       78.57685
H         51.45632        3.48865       78.44988
H         49.51684        5.08280       78.23606
H         50.66775        6.46514       78.40158
N         53.98345        4.08992       75.42505
C         54.14435        5.32610       74.65221
C         54.01563        6.60116       75.46379
O         54.73908        6.78371       76.43284
C         55.53600        5.31201       73.96002
C         55.78371        6.49450       73.00717
C         54.82421        6.48186       71.85292
O         54.79316        5.43007       71.01205
O         54.07083        7.42342       71.66996
H         54.73657        3.38964       75.32406
H         53.36729        5.31965       73.85777
H         55.65277        4.37061       73.37929
H         56.32694        5.32195       74.74335
H         56.81599        6.42097       72.60223
H         55.70987        7.45469       73.56301
N         53.12507        7.55624       75.06263
C         52.95622        8.83727       75.71397
H         51.90169        8.94514       76.04318
H         53.62203        8.95675       76.59268
H         53.18418        9.64574       74.98600
H         52.54298        7.38296       74.22893
Ca        52.00486       11.55880       67.44240
O         54.10540        7.90975       68.35589
H         53.55802        7.13043       68.62673
H         54.81146        7.97198       69.04714
O         55.54079       11.13536       68.75659
H         55.70355       11.00706       69.72489
H         56.38387       11.52518       68.41351
O         54.58620        9.40426       65.75520
H         54.77964        8.61537       65.18872
H         55.24848       10.08314       65.47097
O         53.00032       10.29714       70.60568
H         53.62052       10.05568       71.33859
H         52.13658       10.46870       71.05813

Ca 1.0



