%chk=apoCaM-CA-Ng.loop3.water4.frame194.chk
%nprocshared=20
%mem=10GB
%nosave
#b3lyp/svp scf=(tight,noincore,xqc) Test 
#IOP(5/87=12) Density=Current Pop=(MK,readradii) iop(6/33=2) iop(6/42=6)

apoCaM-CA-Ng.loop3.water4.frame194 

   0  1 
C        -22.76357       20.66522       30.11153
C        -24.08291       20.05038       30.47369
O        -24.75758       20.54898       31.36187
H        -21.95257       19.92316       30.26984
H        -22.77470       20.96766       29.04317
H        -22.55521       21.55959       30.73579
N        -24.50350       18.93065       29.82514
C        -25.75763       18.23840       30.09970
C        -25.82365       17.81891       31.55961
O        -26.81992       18.07566       32.22174
C        -26.98307       19.08889       29.67340
C        -27.01210       19.43782       28.20704
O        -28.05029       20.14427       27.72235
O        -26.12441       19.08204       27.44758
H        -23.88501       18.52168       29.10734
H        -25.77073       17.30549       29.49302
H        -27.01666       20.03146       30.25995
H        -27.91008       18.51583       29.89082
N        -24.77471       17.15092       32.11816
C        -24.75109       16.67610       33.49952
C        -24.24268       17.76485       34.45211
O        -23.24640       17.55416       35.13218
C        -23.85430       15.41807       33.58962
C        -24.34298       14.25164       32.71553
C        -23.30628       13.11661       32.74341
C        -23.67834       11.91840       31.85709
N        -24.83348       11.18255       32.37155
H        -23.96591       16.93636       31.51407
H        -25.77564       16.37629       33.81524
H        -23.81160       15.06428       34.64402
H        -22.82661       15.70522       33.27294
H        -24.45959       14.58529       31.66210
H        -25.33048       13.90891       33.09067
H        -23.13683       12.76919       33.78584
H        -22.34778       13.52760       32.35597
H        -22.80569       11.22850       31.83242
H        -23.87191       12.25954       30.81573
H        -24.63696       10.84533       33.34220
H        -25.69013       11.77910       32.36670
H        -25.00375       10.35256       31.75882
N        -24.90092       18.95139       34.57477
C        -24.52680       20.00265       35.51261
C        -25.70507       20.22956       36.43992
O        -26.80645       20.43845       35.94936
C        -24.15924       21.27992       34.73174
C        -23.62103       22.38641       35.60529
O        -23.48037       22.22866       36.93632
O        -23.27584       23.43713       35.09288
H        -25.72987       19.12673       33.99653
H        -23.63036       19.70906       36.10273
H        -25.04443       21.64870       34.16884
H        -23.36209       21.02664       33.99878
N        -25.56523       20.16308       37.79391
C        -26.70223       20.25962       38.69517
C        -27.44770       21.58552       38.66571
O        -28.49985       21.63488       39.28613
H        -24.63624       19.97368       38.19955
H        -26.37453       20.06662       39.73945
H        -27.41670       19.45367       38.41566
N        -26.99457       22.69163       37.99525
C        -27.76424       23.93943       37.91314
C        -28.07878       24.34541       36.47049
O        -28.77662       25.33392       36.28466
C        -27.03761       25.09364       38.63040
C        -25.82726       25.57369       37.86794
N        -25.81197       26.81453       37.32435
O        -24.86775       24.83476       37.71833
H        -26.07709       22.65208       37.53429
H        -28.73715       23.80672       38.43418
H        -26.75884       24.79928       39.66564
H        -27.75929       25.93567       38.71559
H        -26.61579       27.45070       37.43052
H        -25.00101       27.13945       36.77919
N        -27.60632       23.64445       35.40221
C        -27.90081       23.98001       34.02340
C        -27.20649       25.23682       33.54706
O        -27.87325       26.13740       33.06052
H        -27.04022       22.80350       35.55001
H        -29.00146       24.03702       33.87794
H        -27.52230       23.15847       33.37572
N        -25.84501       25.30935       33.56835
C        -25.07025       26.34656       32.88895
C        -24.14775       27.08521       33.81931
O        -23.34390       26.45176       34.48914
C        -24.17349       25.67385       31.83331
C        -24.97869       25.09735       30.70947
C        -25.62446       25.95216       29.80375
C        -25.07762       23.71125       30.54489
C        -26.35565       25.42377       28.73961
C        -25.81896       23.18208       29.48573
C        -26.45696       24.03902       28.57646
O        -27.16546       23.54584       27.54281
H        -25.32624       24.53269       34.00335
H        -25.72875       27.08487       32.38241
H        -23.57004       24.88375       32.33686
H        -23.45375       26.39948       31.39199
H        -25.54651       27.02707       29.91406
H        -24.58591       23.04964       31.24372
H        -26.83960       26.09222       28.03954
H        -25.89425       22.11010       29.36950
H        -27.25204       22.59569       27.38927
N        -24.13463       28.45099       33.81496
C        -23.11025       29.22199       34.49835
C        -23.76361       30.00664       35.61031
O        -23.49645       29.70000       36.75992
C        -22.33604       30.12903       33.48411
C        -21.87818       29.37692       32.20308
C        -21.13760       30.83078       34.14916
C        -20.86497       28.25324       32.42779
H        -24.83202       28.96466       33.25507
H        -22.37252       28.53470       34.96031
H        -23.03225       30.91575       33.12113
H        -21.42708       30.11033       31.49849
H        -22.76756       28.94963       31.69205
H        -20.64143       31.51049       33.42286
H        -21.45307       31.43180       35.01671
H        -20.39536       30.09666       34.52128
H        -21.27749       27.47598       33.09869
H        -20.62614       27.77990       31.45199
H        -19.91857       28.64607       32.85075
N        -24.65411       31.00826       35.35539
C        -25.29224       31.78897       36.41347
C        -24.27515       32.56203       37.24243
O        -24.51299       32.74750       38.42702
C        -26.32593       32.76074       35.83117
O        -27.29961       32.03823       35.12647
H        -24.89165       31.21973       34.37409
H        -25.83816       31.08749       37.08470
H        -25.80717       33.47819       35.15375
H        -26.81858       33.32087       36.65685
H        -27.75338       32.68562       34.52732
N        -23.10122       33.00104       36.69369
C        -22.04049       33.70036       37.42449
C        -21.42204       32.87921       38.56037
O        -20.56624       33.41669       39.25521
C        -22.55145       35.05618       37.92864
H        -22.94593       32.84519       35.68989
H        -21.21813       33.92471       36.70838
H        -22.93989       35.64930       37.07317
H        -23.35484       34.94138       38.68293
H        -21.71895       35.63056       38.38947
N        -21.77216       31.58360       38.80539
C        -21.26024       30.77910       39.90422
C        -20.48824       29.57080       39.39961
O        -20.41282       29.34909       38.19650
C        -22.44121       30.34018       40.77652
H        -22.44642       31.12559       38.19408
H        -20.56254       31.37806       40.52942
H        -22.10466       29.72915       41.63890
H        -22.97502       31.23310       41.16448
H        -23.16091       29.74605       40.17597
N        -19.82083       28.78392       40.29091
C        -18.93529       27.67372       39.94966
C        -17.90626       28.12413       38.92591
O        -17.75879       27.49771       37.88505
C        -19.69318       26.39631       39.50530
C        -20.72468       25.93469       40.54383
C        -21.23227       24.53553       40.28196
O        -21.81878       24.17286       39.12064
O        -21.10610       23.69149       41.15520
H        -19.86265       29.04629       41.28886
H        -18.38439       27.39724       40.87659
H        -18.93256       25.59281       39.38162
H        -20.19676       26.55553       38.53295
H        -21.57068       26.65008       40.56601
H        -20.25310       25.93689       41.55160
N        -17.17864       29.25089       39.15209
C        -16.23372       29.75840       38.18255
H        -15.42664       29.01556       38.01334
H        -16.75449       29.96683       37.22261
H        -15.78508       30.70435       38.55222
H        -17.32155       29.78215       40.02407
Ca       -22.02284       25.35729       37.20601
O        -20.80353       24.69229       34.10040
H        -20.39132       25.03505       33.26836
H        -20.34098       23.83442       34.27396
O        -20.04628       27.13326       35.68845
H        -19.34720       27.82486       35.58112
H        -20.71051       27.54739       36.29333
O        -19.37773       23.73898       37.12313
H        -18.72322       23.35009       36.49056
H        -19.84381       22.95608       37.51083
O        -23.34248       27.32818       38.70230
H        -22.55359       27.90669       38.56716
H        -23.65674       27.52030       39.61928

Ca 1.0



