%chk=apoCaM-CA-Ng.loop3.water2.frame534.chk
%nprocshared=20
%mem=10GB
%nosave
#b3lyp/svp scf=(tight,noincore,xqc) Test 
#IOP(5/87=12) Density=Current Pop=(MK,readradii) iop(6/33=2) iop(6/42=6)

apoCaM-CA-Ng.loop3.water2.frame534 

   0  1 
C         62.30897       12.46426       81.55427
C         62.17313       12.04932       82.98474
O         62.60322       10.95075       83.30674
H         63.38490       12.43876       81.27622
H         61.75174       11.75723       80.90552
H         61.92553       13.49197       81.39338
N         61.58398       12.86912       83.90579
C         61.52776       12.53414       85.31942
C         60.10158       12.28021       85.75791
O         59.28349       13.18945       85.70559
C         62.15199       13.67689       86.15404
C         62.45381       13.25638       87.56224
O         62.90994       14.05464       88.36503
O         62.47510       11.94423       87.83334
H         61.18290       13.76847       83.59952
H         62.11859       11.60887       85.48752
H         61.49182       14.56866       86.13455
H         63.12462       13.96412       85.70902
N         59.73595       11.04697       86.20765
C         58.39628       10.74096       86.69037
C         58.12371       11.52202       87.96454
O         57.21383       12.33882       87.97664
C         58.27027        9.21934       86.92620
C         56.87998        8.77756       87.41772
C         56.78143        7.24999       87.59201
C         57.69621        6.70637       88.70570
N         57.57253        5.25497       88.82780
H         60.44070       10.29256       86.19606
H         57.65915       11.02235       85.90356
H         59.04561        8.91253       87.65303
H         58.48206        8.70125       85.96470
H         56.12650        9.08940       86.66173
H         56.62938        9.27119       88.38163
H         57.02683        6.75586       86.62661
H         55.73049        6.99713       87.85207
H         57.42381        7.18431       89.67305
H         58.75573        6.93987       88.48790
H         57.86484        4.79665       87.93391
H         58.20150        4.92330       89.59491
H         56.58711        4.99185       89.05694
N         58.87164       11.30268       89.08678
C         58.62897       12.00166       90.34717
C         58.94810       13.49556       90.27573
O         58.54918       14.21549       91.18034
C         59.36676       11.30113       91.51217
C         60.85585       11.18475       91.31251
O         61.62299       12.28161       91.20756
O         61.37851       10.08281       91.25407
H         59.60353       10.57896       89.05119
H         57.54223       11.90815       90.57053
H         58.95042       10.27271       91.60396
H         59.16110       11.83168       92.46628
N         59.63505       14.03727       89.22824
C         59.85812       15.46295       89.03040
C         60.73237       16.18033       90.04736
O         60.94029       17.36697       89.84635
H         59.96823       13.41696       88.48044
H         58.87246       15.97485       88.98670
H         60.34787       15.59992       88.04261
N         61.25474       15.57862       91.15716
C         62.03056       16.30549       92.16243
C         63.38286       15.65711       92.42028
O         63.67436       14.59291       91.89697
C         61.19570       16.38096       93.45612
C         59.97313       17.23938       93.23220
N         58.72756       16.71484       93.28607
O         60.11538       18.42843       92.98716
H         61.05250       14.59397       91.34415
H         62.24811       17.34156       91.82266
H         61.77350       16.83238       94.29046
H         60.91051       15.34919       93.76094
H         58.58091       15.71354       93.47493
H         57.90482       17.31357       93.11847
N         64.27860       16.30683       93.22042
C         65.60606       15.81930       93.56005
C         66.47435       15.60344       92.34256
O         66.56337       16.48824       91.50277
H         64.00811       17.21996       93.61497
H         65.52736       14.88779       94.16105
H         66.09988       16.58712       94.19468
N         67.19075       14.44967       92.21355
C         68.04246       14.15263       91.06218
C         67.21462       13.94860       89.80267
O         65.99444       14.01186       89.85319
C         68.93895       12.92842       91.37210
C         70.09523       13.31422       92.26161
C         70.14275       12.93282       93.61128
C         71.16133       14.05429       91.71893
C         71.23800       13.29354       94.40578
C         72.26024       14.39858       92.50860
C         72.30178       14.02036       93.85719
O         73.35735       14.34496       94.63101
H         67.14576       13.76573       92.98490
H         68.70528       15.02293       90.85680
H         69.38599       12.48616       90.45663
H         68.32424       12.13673       91.84235
H         69.33112       12.36714       94.05045
H         71.14922       14.34771       90.67581
H         71.26315       13.00310       95.44820
H         73.07911       14.95542       92.06960
H         74.11794       14.83377       94.28449
N         67.85859       13.78750       88.60872
C         67.23629       13.80627       87.28743
C         66.29342       12.63748       87.04026
O         65.30993       12.50962       87.74542
C         66.48291       15.15646       87.03867
C         65.97625       15.30194       85.57564
C         67.32947       16.37843       87.44143
C         67.07258       15.36385       84.50602
H         68.88941       13.75307       88.61883
H         68.06722       13.75041       86.55422
H         65.57927       15.18116       87.68661
H         65.37333       16.23344       85.50205
H         65.30655       14.45549       85.32560
H         66.75570       17.31307       87.26409
H         67.57199       16.35083       88.52378
H         68.28250       16.41718       86.87764
H         66.60170       15.49158       83.50911
H         67.74823       16.22688       84.67302
H         67.66648       14.42903       84.47803
N         66.46266       11.82671       85.95693
C         65.40913       10.92564       85.48871
C         65.11426        9.72744       86.38540
O         64.11332        9.07269       86.12262
C         65.72598       10.43929       84.06277
O         65.85742       11.54646       83.20894
H         67.28695       11.97978       85.35588
H         64.47656       11.52791       85.42473
H         64.90908        9.79098       83.67888
H         66.66932        9.84555       84.08915
H         66.48288       11.28231       82.48543
N         65.92552        9.32973       87.41078
C         65.62331        8.12517       88.18859
C         64.35768        8.34916       89.06523
O         64.64826        9.18735       90.14604
C         66.82961        7.69760       89.03131
H         66.80191        9.84309       87.58586
H         65.44737        7.30101       87.46523
H         67.11086        8.48367       89.75918
H         66.59962        6.76038       89.58004
H         67.70015        7.51090       88.36641
N         63.73117        7.13193       89.57929
C         63.18171        6.25638       88.52426
C         63.98717        4.96841       88.54197
O         64.12891        4.41935       89.62625
C         61.70355        5.92489       88.79173
H         62.96272        7.45097       90.21658
H         63.16209        6.77600       87.54865
H         61.10585        6.86075       88.78707
H         61.30379        5.26554       87.99257
H         61.57400        5.41821       89.77067
N         64.52474        4.36063       87.44331
C         64.32308        4.75892       86.05650
C         65.60508        4.54824       85.26913
O         66.10091        5.50094       84.68337
C         63.12024        3.96890       85.50548
C         62.61421        4.50486       84.16125
C         61.32191        3.83265       83.78725
O         61.27924        2.50081       83.59432
O         60.29936        4.49082       83.67276
H         64.97494        3.44846       87.61255
H         64.06220        5.82789       85.98172
H         62.28707        4.09916       86.22904
H         63.34894        2.88221       85.44741
H         63.36995        4.34335       83.36503
H         62.42643        5.59817       84.25723
N         66.21965        3.32871       85.24932
C         67.47826        3.07250       84.57777
H         68.23793        2.77231       85.33146
H         67.34912        2.24170       83.85384
H         67.86073        3.96166       84.03487
H         65.80018        2.53865       85.76031
Ca        63.71271       11.07661       89.44443
O         64.25994       11.69240       92.88518
H         65.04291       11.91543       93.44863
H         63.49189       12.10609       93.35383
O         66.51663       11.06108       90.56241
H         67.16448       10.96744       89.81981
H         66.81989       10.41002       91.24432

Ca 1.0



