%chk=apoCaM-CA-Ng.loop1.water3.frame1184.chk
%nprocshared=20
%mem=10GB
%nosave
#b3lyp/svp scf=(tight,noincore,xqc) Test 
#IOP(5/87=12) Density=Current Pop=(MK,readradii) iop(6/33=2) iop(6/42=6)

apoCaM-CA-Ng.loop1.water3.frame1184 

   0  1 
C          7.76532        8.77258        5.17944
C          9.19635        8.55307        5.56217
O          9.76986        9.40393        6.22828
H          7.13903        7.95309        5.58683
H          7.39728        9.74253        5.57825
H          7.67814        8.79001        4.07226
N          9.84952        7.43163        5.14450
C         11.25869        7.18571        5.42162
C         12.01737        7.23675        4.11862
O         12.72848        6.30365        3.76622
C         11.44052        5.85001        6.16411
C         10.72564        5.85678        7.48421
O          9.84515        5.04232        7.70992
O         11.05895        6.75738        8.42872
H          9.33971        6.74552        4.56618
H         11.68179        7.99326        6.05017
H         12.52140        5.67256        6.35518
H         11.05562        5.02045        5.52946
N         11.88579        8.33909        3.33487
C         12.58910        8.51049        2.07654
C         14.08163        8.60750        2.34267
O         14.79717        7.78667        1.78736
C         11.97609        9.66442        1.24320
C         10.51731        9.28952        0.89120
C          9.78380       10.32223        0.03497
C          8.35687        9.81680       -0.25092
N          7.59888       10.76808       -1.05917
H         11.24535        9.08454        3.64918
H         12.42714        7.60272        1.44932
H         12.55039        9.77701        0.29770
H         12.00435       10.63288        1.78130
H          9.93058        9.14876        1.82362
H         10.52500        8.32424        0.33707
H         10.32715       10.47008       -0.92340
H          9.73609       11.29018        0.57936
H          7.82068        9.65097        0.71108
H          8.40845        8.84295       -0.78884
H          8.07120       10.91311       -1.98047
H          6.64150       10.38074       -1.22647
H          7.51139       11.67852       -0.55274
N         14.66596        9.47371        3.22433
C         14.01601       10.52203        4.01402
C         13.98954       10.16243        5.49124
O         14.61835        9.19301        5.89601
C         14.67893       11.89017        3.71294
C         16.18012       11.77724        3.52841
O         17.02059       11.45869        4.53464
O         16.64012       11.90709        2.40480
H         15.67862        9.34029        3.37384
H         12.94868       10.60829        3.75243
H         14.39173       12.67182        4.44978
H         14.27347       12.21302        2.72811
N         13.13033       10.81905        6.32706
C         12.84818       10.35743        7.67882
C         13.95582       10.62641        8.65861
O         14.87831       11.36072        8.35658
H         12.54572       11.58054        5.94780
H         12.63680        9.26976        7.64569
H         11.93695       10.85920        8.07108
N         13.90873       10.02569        9.88154
C         14.89337       10.25301       10.93786
C         14.16696       10.56794       12.24452
O         12.97064       10.33225       12.31640
C         15.74323        8.97650       11.09291
C         16.47463        8.66142        9.81750
O         17.36304        9.53992        9.31574
O         16.26399        7.61264        9.22926
H         13.15349        9.34573       10.05749
H         15.54923       11.10534       10.66687
H         15.08061        8.12354       11.36331
H         16.49612        9.08753       11.89466
N         14.77875       11.08351       13.35172
C         16.14436       11.56254       13.45130
C         16.35450       12.80680       12.62186
O         15.51478       13.69615       12.66176
H         14.20008       11.19235       14.20069
H         16.89109       10.77190       13.23953
H         16.30916       11.87298       14.50598
N         17.50502       12.98087       11.91937
C         17.80509       14.19987       11.17310
C         16.92280       14.30814        9.92793
O         16.78826       13.33978        9.19891
C         19.32022       14.27603       10.86289
C         19.71162       15.60035       10.19325
O         19.72009       13.19184       10.07017
H         18.22778       12.24596       11.98475
H         17.62171       15.07505       11.83801
H         19.84617       14.23094       11.84853
H         20.68298       13.03818       10.26154
H         19.41603       16.45771       10.83604
H         20.81209       15.64053       10.04829
H         19.22093       15.70897        9.20553
N         16.31462       15.49229        9.63031
C         15.41899       15.77246        8.50313
C         16.05532       15.51986        7.11785
O         15.65643       14.34215        6.47638
C         14.04228       15.04023        8.61025
C         13.40375       15.25314       10.00032
C         13.08838       15.53336        7.48899
C         12.09428       14.48178       10.18589
H         16.50532       16.28929       10.25679
H         15.20810       16.86418        8.54657
H         14.21142       13.94858        8.48419
H         13.22491       16.33547       10.17720
H         14.10561       14.88345       10.77501
H         13.50840       15.39225        6.47403
H         12.13687       14.96890        7.48400
H         12.87389       16.61578        7.61297
H         11.30264       14.85294        9.50453
H         12.25671       13.39694       10.00625
H         11.72773       14.62228       11.22294
N         17.42088       15.99664        6.86947
C         17.92425       15.77659        5.48904
C         19.36513       16.26679        5.32585
O         19.92965       16.00897        4.27060
C         17.03470       16.40333        4.36135
C         16.80762       17.90688        4.52849
O         15.78581       15.77035        4.27748
H         17.41382       17.01780        7.08827
H         17.97182       14.67907        5.31312
H         17.55187       16.26874        3.38037
H         15.92819       14.91536        3.79082
H         16.21304       18.28765        3.67055
H         16.23669       18.11739        5.45648
H         17.77390       18.45167        4.55642
N         20.03189       16.97659        6.28939
C         21.40848       17.42908        6.10225
C         22.31401       16.20676        6.07131
O         22.49053       15.59740        7.11584
C         21.80661       18.40794        7.24092
C         23.20879       18.99271        7.06006
O         20.88181       19.46714        7.27770
H         19.55602       17.22648        7.16579
H         21.45551       17.98674        5.13933
H         21.77496       17.84434        8.20577
H         20.73895       19.70263        8.23236
H         23.26394       19.57482        6.11579
H         23.43557       19.67432        7.90858
H         23.97551       18.19113        7.04353
N         22.85691       15.75502        4.89719
C         23.63133       14.51591        4.75216
C         22.82245       13.28622        5.13437
O         22.23409       13.24983        6.20306
C         24.95084       14.52990        5.53015
C         25.89987       15.62481        5.03316
C         27.26189       15.47152        5.71356
C         28.25270       16.53798        5.24146
N         29.55001       16.35201        5.89007
H         22.67425       16.29496        4.03741
H         23.91137       14.40494        3.67955
H         25.44355       13.54686        5.35074
H         24.77720       14.63247        6.62149
H         25.46610       16.62552        5.24855
H         26.03989       15.52456        3.93301
H         27.67531       14.46680        5.47048
H         27.13394       15.54873        6.81491
H         27.85541       17.54718        5.48871
H         28.38121       16.46887        4.13780
H         29.94642       15.41748        5.63634
H         30.20670       17.09783        5.56671
H         29.44466       16.41758        6.92875
N         22.79658       12.19388        4.32267
C         21.95921       11.04091        4.62707
C         20.49892       11.44436        4.52219
O         19.79915       11.27528        5.50946
C         22.28248        9.80991        3.75503
C         23.70096        9.28948        4.04110
C         23.99277        8.04899        3.24981
O         24.27138        6.89413        3.88459
O         23.98945        8.08191        2.02972
H         23.38538       12.18614        3.47647
H         22.15882       10.71211        5.67465
H         22.16623       10.02270        2.67537
H         21.56577        9.00044        4.02173
H         23.79023        9.05149        5.12479
H         24.45804       10.06183        3.79063
N         19.93363       12.01757        3.41665
C         20.58055       12.32865        2.15960
H         21.64047       12.04986        2.11550
H         20.05285       11.79749        1.34049
H         20.51055       13.42171        1.97964
H         18.94796       12.29201        3.46953
Ca        16.73370       12.38442        6.52310
O         17.75696        8.84335        6.30574
H         17.77363        7.97902        6.78829
H         17.20418        8.66737        5.50376
O         19.56124       13.45260        7.24440
H         20.07344       14.26876        7.03146
H         18.77350       13.78959        7.73257
O         20.07245       10.70659        8.53812
H         20.98153       11.08401        8.42998
H         20.21388        9.72921        8.60272

Ca 1.0



