%chk=apoCaM-CA-Ng.loop1.water4.frame762.chk
%nprocshared=20
%mem=10GB
%nosave
#b3lyp/svp scf=(tight,noincore,xqc) Test 
#IOP(5/87=12) Density=Current Pop=(MK,readradii) iop(6/33=2) iop(6/42=6)

apoCaM-CA-Ng.loop1.water4.frame762 

   0  1 
C         53.04120       37.10832       -4.83643
C         53.87342       37.66557       -5.95172
O         53.46127       37.58506       -7.10014
H         52.09687       36.67406       -5.22934
H         53.60913       36.30908       -4.31490
H         52.79427       37.91337       -4.11391
N         55.07754       38.24073       -5.67748
C         55.97270       38.76369       -6.70503
C         57.23006       37.91164       -6.79092
O         57.36107       36.97555       -6.01256
C         56.12778       40.30298       -6.55458
C         56.38983       40.96620       -5.20872
O         56.78307       40.32214       -4.09322
O         56.20166       42.16933       -5.12871
H         55.38669       38.28056       -4.69437
H         55.51831       38.62358       -7.71100
H         55.11832       40.68435       -6.82593
H         56.83180       40.70136       -7.31523
N         58.14256       38.10044       -7.79436
C         59.24442       37.17005       -8.04131
C         60.57709       37.86210       -7.84337
O         60.82286       38.88163       -8.47248
C         59.16035       36.58889       -9.46857
C         60.05538       35.34127       -9.58748
C         60.18844       34.84874      -11.03417
C         60.97170       33.52732      -11.11620
N         60.16977       32.37947      -10.68237
H         58.01946       38.89353       -8.44195
H         59.16778       36.31057       -7.34042
H         59.44326       37.37254      -10.20616
H         58.11974       36.26576       -9.69194
H         59.61293       34.55768       -8.93738
H         61.08113       35.55927       -9.21721
H         60.75603       35.62977      -11.58659
H         59.20086       34.72115      -11.52616
H         61.89185       33.60996      -10.50199
H         61.27516       33.35437      -12.17172
H         60.75202       31.51311      -10.74375
H         59.84008       32.48600       -9.69820
H         59.34600       32.26839      -11.31815
N         61.49452       37.33473       -6.98325
C         62.77680       37.97296       -6.66202
C         63.64681       37.05702       -5.79149
O         63.11868       36.11358       -5.21982
C         62.53723       39.33967       -5.96872
C         61.62752       39.22464       -4.77494
O         60.50072       38.50207       -4.89850
O         61.89507       39.77566       -3.72033
H         61.24891       36.43889       -6.53911
H         63.28346       38.14531       -7.62083
H         62.02316       40.00429       -6.69030
H         63.47478       39.85919       -5.69516
N         64.99392       37.21786       -5.62268
C         65.85644       38.21370       -6.24125
C         65.94756       38.12157       -7.75273
O         65.27214       37.31796       -8.37527
H         65.46407       36.55812       -4.98528
H         66.88608       38.06258       -5.84805
H         65.54272       39.23122       -5.94640
N         66.79065       38.96357       -8.40879
C         66.88866       39.06484       -9.86328
C         67.24224       37.76369      -10.57982
O         66.63103       37.49691      -11.60571
C         67.82165       40.22539      -10.28470
C         69.25481       40.16634       -9.81264
O         70.01761       41.06483      -10.12819
O         69.70910       39.17452       -9.02628
H         67.35337       39.61057       -7.83483
H         65.88565       39.36418      -10.24567
H         67.38873       41.16978       -9.88779
H         67.81650       40.29160      -11.39435
N         68.16972       36.88872      -10.09996
C         68.51984       35.64567      -10.77821
C         68.02440       34.45087      -10.00143
O         68.57377       33.36873      -10.15488
H         68.61504       37.06959       -9.19060
H         69.62660       35.60760      -10.87162
H         68.10399       35.57975      -11.80666
N         66.94373       34.57125       -9.18353
C         66.39892       33.51066       -8.35307
C         66.43270       33.96547       -6.90647
O         66.71048       35.12985       -6.65822
C         64.94234       33.22066       -8.79398
C         64.88558       32.79208      -10.26222
O         64.38511       32.20366       -8.00228
H         66.46571       35.47521       -9.13945
H         67.01639       32.59062       -8.44905
H         64.35162       34.16395       -8.67411
H         63.41624       32.40357       -7.90952
H         65.25292       33.60526      -10.92390
H         65.49989       31.88231      -10.42176
H         63.84373       32.55905      -10.55076
N         66.16594       33.10450       -5.88801
C         66.13354       33.53148       -4.49073
C         67.46854       34.13193       -4.07680
O         67.46838       35.10303       -3.33371
C         65.71234       32.38796       -3.51910
C         64.40004       31.66791       -3.94485
C         65.57000       32.92409       -2.07761
C         63.19849       32.58972       -4.17634
H         65.98537       32.12035       -6.12512
H         65.36083       34.32478       -4.39900
H         66.51240       31.61442       -3.50722
H         64.13746       30.91522       -3.17027
H         64.56403       31.09701       -4.88014
H         64.80203       33.72389       -2.01956
H         65.28533       32.10409       -1.38582
H         66.52877       33.34128       -1.70684
H         62.94267       33.16267       -3.26321
H         63.39803       33.29227       -5.01220
H         62.31923       31.97566       -4.46239
N         68.63939       33.65531       -4.59030
C         69.93750       34.23044       -4.26043
C         70.94018       33.15187       -3.88214
O         70.66789       31.96552       -3.99048
C         70.46584       35.11409       -5.43108
C         70.54742       34.38656       -6.78082
O         69.70060       36.28618       -5.55245
H         68.60842       32.88810       -5.27743
H         69.84884       34.89352       -3.37167
H         71.49306       35.45477       -5.18704
H         68.78625       36.02856       -5.82198
H         70.96347       35.07425       -7.54766
H         71.20784       33.49794       -6.70614
H         69.54050       34.06542       -7.12047
N         72.15231       33.55069       -3.41679
C         73.26514       32.67685       -3.07217
C         73.60142       32.82909       -1.58929
O         73.75829       31.83129       -0.89912
C         74.45965       33.06176       -3.98468
C         75.65877       32.12724       -3.82754
O         74.86873       34.38400       -3.72939
H         72.30175       34.56399       -3.33135
H         73.01739       31.61137       -3.27989
H         74.10616       32.96180       -5.04069
H         74.95742       34.84800       -4.60222
H         75.36475       31.08383       -4.06854
H         76.45962       32.43551       -4.53429
H         76.06262       32.16850       -2.79477
N         73.69435       34.07060       -1.03758
C         74.08900       34.37360        0.33253
C         73.60491       35.78071        0.65513
O         73.89731       36.70148       -0.09788
C         75.61734       34.21592        0.43648
C         76.23021       34.82694        1.70418
C         77.73449       34.53541        1.74688
C         78.41841       35.25131        2.91605
N         79.84135       34.91541        2.96274
H         73.49733       34.87616       -1.64355
H         73.59500       33.68308        1.05310
H         76.09400       34.71871       -0.43378
H         75.85334       33.12957        0.38008
H         75.74265       34.41906        2.61569
H         76.07491       35.92856        1.67586
H         78.21049       34.87664        0.80086
H         77.88044       33.43720        1.84343
H         77.93868       34.95309        3.87377
H         78.30399       36.35212        2.79154
H         80.31167       35.20730        2.07495
H         80.28764       35.41676        3.76397
H         79.95981       33.88512        3.09994
N         72.82188       36.01382        1.74868
C         72.15508       37.29072        1.95829
C         70.96865       37.41200        1.00309
O         70.98579       38.34167        0.20954
C         71.76146       37.52739        3.43234
C         72.99906       37.70700        4.32505
C         72.60363       38.03930        5.73565
O         71.95686       39.04797        5.97234
O         72.97780       37.23660        6.74947
H         72.64686       35.24783        2.41729
H         72.86646       38.11626        1.72317
H         71.14733       36.70560        3.83938
H         71.16975       38.46890        3.47893
H         73.62302       38.54185        3.93708
H         73.60795       36.77771        4.31568
N         69.90862       36.54615        0.95616
C         69.72612       35.37656        1.79146
H         68.79216       34.85152        1.49714
H         70.56222       34.66226        1.66046
H         69.60175       35.65797        2.85152
H         69.17461       36.72337        0.25241
Ca        58.42137       38.84928       -4.21560
O         59.38069       40.92620       -1.96258
H         58.45006       41.24987       -2.05853
H         59.90481       41.49408       -2.58151
O         56.16570       39.30346       -1.47249
H         55.60893       40.05627       -1.79470
H         55.68702       38.96936       -0.67370
O         60.66090       37.87337       -0.96544
H         60.87192       38.71508       -0.48861
H         61.08345       37.97958       -1.85417
O         60.16734       35.71123       -3.42432
H         60.45004       34.77310       -3.55905
H         60.54860       36.18482       -4.20211

Ca 1.0



