%chk=apoCaM-CA-Ng.loop1.water5.frame676.chk
%nprocshared=20
%mem=10GB
%nosave
#b3lyp/svp scf=(tight,noincore,xqc) Test 
#IOP(5/87=12) Density=Current Pop=(MK,readradii) iop(6/33=2) iop(6/42=6)

apoCaM-CA-Ng.loop1.water5.frame676 

   0  1 
C          2.01577       36.89296       73.78055
C          1.63028       35.95160       72.67963
O          0.98029       36.38875       71.74016
H          2.63531       37.71542       73.36766
H          1.09470       37.32240       74.23010
H          2.58720       36.37501       74.57862
N          1.98115       34.63364       72.73011
C          1.55906       33.67416       71.71661
C          0.00706       33.70987       71.51925
O         -0.76219       33.87150       72.68447
C          2.25537       32.26505       71.86849
C          2.72819       31.70484       73.21396
O          3.91283       31.44298       73.35560
O          1.89696       31.41920       74.23057
H          2.54095       34.30412       73.53014
H          1.91349       34.02627       70.72182
H          3.20154       32.35573       71.28731
H          1.66562       31.49561       71.32925
N         -0.50923       32.65538       70.63272
C         -1.96912       32.72237       70.41601
C         -2.52273       31.32695       70.57102
O         -3.25314       30.84832       69.71311
C         -2.35778       33.36090       69.06158
C         -1.81547       34.78445       68.88528
C         -2.34843       35.40452       67.58645
C         -1.72883       36.78321       67.33795
N         -2.30627       37.41284       66.15062
H          0.01916       32.60575       69.73143
H         -2.46479       33.31846       71.21309
H         -3.46844       33.38751       69.00286
H         -1.98243       32.73012       68.22552
H         -0.70535       34.74894       68.85325
H         -2.12850       35.41971       69.74300
H         -3.45429       35.50101       67.66370
H         -2.10824       34.74734       66.72248
H         -0.62949       36.67602       67.20545
H         -1.90575       37.43140       68.21663
H         -3.33327       37.55930       66.28701
H         -1.85185       38.34246       66.00040
H         -2.14399       36.81469       65.30829
N         -2.19289       30.61239       71.68309
C         -2.73303       29.30062       71.99239
C         -3.41532       29.38926       73.35508
O         -2.71361       29.60209       74.33269
C         -1.64846       28.19895       71.89119
C         -0.39726       28.34172       72.72617
O         -0.19468       29.38819       73.54499
O          0.47034       27.48818       72.63684
H         -1.54753       31.04064       72.36014
H         -3.44915       29.02299       71.21020
H         -1.31536       28.16082       70.83016
H         -2.12310       27.22318       72.13241
N         -4.76834       29.34271       73.54405
C         -5.78919       29.12555       72.53092
C         -6.58267       30.37807       72.21756
O         -7.52241       30.26271       71.44406
H         -5.11585       29.51233       74.50195
H         -6.47429       28.33813       72.91222
H         -5.40095       28.73661       71.58003
N         -6.28382       31.59955       72.75956
C         -7.07267       32.80168       72.49547
C         -6.21401       33.92363       71.91717
O         -5.27683       34.37512       72.55998
C         -7.84097       33.23689       73.76052
C         -6.99271       33.54977       74.96114
O         -7.05256       34.77112       75.51584
O         -6.30332       32.68823       75.48182
H         -5.48497       31.68345       73.40179
H         -7.86866       32.57474       71.75425
H         -8.53879       32.42062       74.04680
H         -8.45297       34.12997       73.50530
N         -6.50773       34.42311       70.68215
C         -5.77999       35.49111       70.01466
C         -5.90751       36.82358       70.71520
O         -7.02059       37.22898       71.01896
H         -7.29582       34.01205       70.15925
H         -6.22828       35.62535       69.00584
H         -4.71791       35.20873       69.87169
N         -4.80417       37.60337       70.91198
C         -4.85191       38.94767       71.48566
C         -3.92831       39.04603       72.69511
O         -3.35265       38.04834       73.10797
C         -4.55170       40.01298       70.39221
C         -3.12903       39.96179       69.83902
O         -5.46788       39.85206       69.33708
H         -3.89049       37.25204       70.58729
H         -5.87834       39.18135       71.84540
H         -4.69191       41.02233       70.84217
H         -5.71814       40.75820       69.01521
H         -2.94770       38.99433       69.34402
H         -2.99395       40.77023       69.08855
H         -2.38501       40.11164       70.64903
N         -3.75073       40.24188       73.31979
C         -2.98860       40.41710       74.55161
C         -3.75792       39.76747       75.68631
O         -3.16416       39.07159       76.49807
C         -2.75217       41.93910       74.81400
C         -1.91862       42.60235       73.67488
C         -2.09146       42.20162       76.18078
C         -0.48640       42.07126       73.51193
H         -4.22324       41.06970       72.93247
H         -1.98955       39.94006       74.47209
H         -3.74199       42.44854       74.83723
H         -1.85523       43.69490       73.86924
H         -2.43962       42.47744       72.70261
H         -2.74436       41.84863       77.00574
H         -1.11490       41.68313       76.26692
H         -1.93781       43.29268       76.32591
H          0.11180       42.23815       74.43069
H         -0.47461       40.99306       73.25520
H          0.01415       42.61436       72.68311
N         -5.10849       39.92149       75.75775
C         -5.95279       39.35573       76.80120
C         -6.83416       40.45633       77.37153
O         -6.69283       41.59918       76.95216
C         -6.75285       38.15410       76.23401
C         -7.69942       38.49379       75.07233
O         -5.85922       37.13605       75.85727
H         -5.58062       40.44665       75.00534
H         -5.33699       38.95100       77.63470
H         -7.38298       37.73582       77.04663
H         -5.40144       37.41386       75.02197
H         -8.24602       37.57598       74.76491
H         -8.44254       39.25603       75.38403
H         -7.13637       38.86863       74.19265
N         -7.77662       40.19382       78.32271
C         -8.63140       41.24057       78.87623
C         -8.52450       41.35629       80.38720
O         -9.09729       42.30356       80.90706
C        -10.10423       41.03472       78.44172
C        -10.74118       39.75707       78.99891
O        -10.17354       41.00244       77.03706
H         -7.91052       39.22330       78.63975
H         -8.32371       42.23093       78.47453
H        -10.70205       41.89208       78.83923
H        -10.71143       41.78264       76.74090
H        -11.80030       39.69912       78.66869
H        -10.21277       38.85340       78.63253
H        -10.72780       39.76387       80.10934
N         -7.83874       40.45870       81.16570
C         -7.82032       40.55898       82.62352
C         -6.91570       39.50655       83.24507
O         -7.12175       38.32243       83.01482
C         -9.24964       40.40245       83.20797
C         -9.28671       40.72786       84.70956
C        -10.72907       40.77558       85.22625
C        -10.77328       41.23209       86.68969
N        -12.15407       41.36929       87.15090
H         -7.32545       39.68367       80.72426
H         -7.44221       41.57089       82.88999
H         -9.64822       39.38186       83.01391
H         -9.93587       41.11835       82.71994
H         -8.83619       41.73418       84.85732
H         -8.69443       39.98465       85.28686
H        -11.20493       39.77599       85.12190
H        -11.30201       41.50889       84.61671
H        -10.26590       42.21881       86.78278
H        -10.23443       40.49851       87.32919
H        -12.65712       42.07712       86.56683
H        -12.64762       40.44946       87.09305
H        -12.15229       41.69616       88.14393
N         -5.94348       39.88030       84.12455
C         -5.14600       38.92294       84.88060
C         -4.22018       38.10982       83.97569
O         -4.38609       36.89832       83.95595
C         -4.44409       39.63556       86.05932
C         -3.64369       38.67572       86.94865
C         -3.11231       39.39286       88.15716
O         -3.48241       38.99827       89.39066
O         -2.34715       40.33568       88.02985
H         -5.83503       40.88464       84.33389
H         -5.85228       38.21172       85.36978
H         -5.24261       40.10081       86.68074
H         -3.79354       40.45877       85.71664
H         -2.79401       38.24494       86.37689
H         -4.30342       37.84658       87.28480
N         -3.24153       38.63591       83.18157
C         -2.91797       40.04038       83.07066
H         -2.11292       40.17571       82.31716
H         -3.80323       40.61924       82.73896
H         -2.52041       40.42787       84.02496
H         -2.69186       37.98532       82.59799
Ca        -0.06091       32.35478       74.12778
O         -2.08660       31.18575       77.20559
H         -2.58443       31.89479       77.68481
H         -2.29611       30.35548       77.70293
O         -1.15025       34.53587       76.12690
H         -1.53261       35.14670       75.44786
H         -0.32178       34.98682       76.42759
O          0.95584       32.34801       77.64641
H          1.74374       31.83940       77.96419
H          1.26081       33.28960       77.62618
O          0.45739       29.37121       76.53340
H          1.44389       29.44852       76.49924
H          0.23834       29.41509       77.49795
O         -3.01003       32.58486       74.45582
H         -3.70962       32.98498       75.02882
H         -3.25229       32.85885       73.53664

Ca 1.0



