%chk=apoCaM-CA-Ng.loop4.water5.frame856.chk
%nprocshared=20
%mem=10GB
%nosave
#b3lyp/svp scf=(tight,noincore,xqc) Test 
#IOP(5/87=12) Density=Current Pop=(MK,readradii) iop(6/33=2) iop(6/42=6)

apoCaM-CA-Ng.loop4.water5.frame856 

   -3  1 
C         62.53503       82.93722      -19.33579
C         62.60424       83.91228      -20.47329
O         63.10820       83.54975      -21.52639
H         62.05336       83.38643      -18.44212
H         61.94371       82.04879      -19.64465
H         63.55992       82.61979      -19.06064
N         62.09028       85.16964      -20.33855
C         62.06988       86.16951      -21.40156
C         61.31149       85.60700      -22.59592
O         61.84004       85.53999      -23.69777
C         63.51078       86.63788      -21.72346
C         63.58633       87.82332      -22.65274
O         62.57832       88.35178      -23.09597
O         64.79235       88.32223      -22.98324
H         61.65219       85.42911      -19.44118
H         61.51288       87.05375      -21.01663
H         64.09582       85.80192      -22.16076
H         64.00058       86.94058      -20.77239
N         60.06214       85.10534      -22.39968
C         59.30324       84.41337      -23.43626
C         58.89057       85.38694      -24.54349
O         58.40171       86.45366      -24.19792
C         58.08023       83.64249      -22.83161
C         56.98436       84.56249      -22.22845
C         58.58072       82.59139      -21.81366
C         55.74974       83.79550      -21.74605
H         59.67599       85.15786      -21.44602
H         59.95263       83.61591      -23.83459
H         57.61149       83.07687      -23.66094
H         56.62418       85.25845      -23.01247
H         57.38584       85.16099      -21.38457
H         59.02241       83.06682      -20.91356
H         57.76106       81.92232      -21.48631
H         59.35103       81.94064      -22.27991
H         55.99179       83.13027      -20.89306
H         54.97913       84.51496      -21.39847
H         55.32180       83.19272      -22.57570
N         58.98666       85.13314      -25.88817
C         59.41834       83.88841      -26.51619
C         60.19942       84.20597      -27.78430
O         59.74772       83.89305      -28.87876
C         58.17447       83.01557      -26.80330
C         58.50259       81.63465      -27.32187
O         57.49987       80.77804      -27.58983
O         59.65801       81.27155      -27.48546
H         58.59004       85.84764      -26.52051
H         60.08377       83.30246      -25.85881
H         57.50902       83.53687      -27.52467
H         57.60752       82.87585      -25.86409
N         61.41374       84.80777      -27.69908
C         62.24059       85.08405      -28.86083
C         63.23776       83.97233      -29.06162
O         63.28533       83.40035      -30.14172
H         61.80411       85.00589      -26.76509
H         62.77034       86.04696      -28.70014
H         61.62448       85.20459      -29.78006
N         64.06443       83.60653      -28.04470
C         65.08412       82.57074      -28.16217
C         64.52603       81.23799      -28.63651
O         65.00163       80.74711      -29.65183
C         65.88390       82.41248      -26.84455
C         65.07968       81.94863      -25.65226
O         64.05017       82.68121      -25.18643
O         65.38066       80.91475      -25.07775
H         63.97778       84.11642      -27.15472
H         65.81944       82.91088      -28.92691
H         66.34528       83.39029      -26.59045
H         66.71007       81.68896      -27.02758
N         63.52738       80.58567      -27.97341
C         63.05691       79.27798      -28.40252
C         64.08715       78.18233      -28.18488
O         63.85277       77.07878      -28.65499
H         63.07424       81.02732      -27.16109
H         62.78064       79.33533      -29.47855
H         62.14526       78.99250      -27.83441
N         65.22089       78.38883      -27.44235
C         66.25132       77.38442      -27.19006
C         65.75632       76.17708      -26.39791
O         66.55298       75.27046      -26.19838
C         66.96547       76.98816      -28.51067
C         67.66402       78.19450      -29.18036
C         68.83401       78.76146      -28.39747
N         69.46476       79.87306      -28.83990
O         69.22648       78.22277      -27.37258
H         65.38423       79.30928      -27.01910
H         67.01777       77.83782      -26.53020
H         66.22755       76.55763      -29.21868
H         67.73435       76.20710      -28.32277
H         66.91494       78.99489      -29.34519
H         68.05087       77.88426      -30.17452
H         69.15338       80.34917      -29.69862
H         70.26071       80.26580      -28.31463
N         64.50340       76.11683      -25.84809
C         64.04344       74.99041      -25.03197
C         63.76813       75.38762      -23.58659
O         63.63245       74.49031      -22.76504
C         62.76919       74.33844      -25.63919
C         61.56462       75.30264      -25.66068
C         63.03618       73.80640      -27.05114
H         63.85951       76.90324      -25.98492
H         64.84040       74.21595      -24.98699
H         62.49087       73.46907      -25.00223
H         61.32624       75.66140      -24.63763
H         61.75461       76.18293      -26.30897
H         60.66408       74.78119      -26.04640
H         62.12902       73.29823      -27.44240
H         63.30194       74.63211      -27.74291
H         63.86733       73.07088      -27.03210
N         63.59105       76.68738      -23.21151
C         63.23195       77.09464      -21.86071
C         64.22871       78.13418      -21.39444
O         64.49410       79.06565      -22.14223
C         61.79179       77.63753      -21.87349
C         61.23065       77.77623      -20.47662
N         60.16441       77.03195      -20.09116
O         61.74302       78.55346      -19.68541
H         63.64156       77.43449      -23.91685
H         63.23151       76.21941      -21.17219
H         61.16204       76.90223      -22.42003
H         61.73266       78.60214      -22.42207
H         59.71819       76.36580      -20.73980
H         59.78258       77.11245      -19.13735
N         64.83780       78.02647      -20.18238
C         65.89788       78.92757      -19.73583
C         66.32462       78.53546      -18.33977
O         65.45665       78.46490      -17.48062
C         65.47780       80.42425      -19.68413
C         66.72689       81.27758      -19.62370
C         67.08453       81.99531      -18.47129
C         67.56308       81.33688      -20.75482
C         68.27018       82.74357      -18.45035
C         68.73654       82.08968      -20.73491
C         69.09937       82.79102      -19.58353
O         70.24505       83.50207      -19.57946
H         64.56063       77.24000      -19.57312
H         66.73913       78.81466      -20.45354
H         64.80539       80.59111      -18.81396
H         64.92162       80.76394      -20.57810
H         66.46127       81.96194      -17.58726
H         67.30288       80.79721      -21.65778
H         68.54703       83.28245      -17.55340
H         69.36634       82.12182      -21.61582
H         70.54453       83.99591      -18.80356
N         67.62893       78.31034      -18.02054
C         68.04171       77.95276      -16.67037
C         68.85559       79.09329      -16.07745
O         70.00390       79.24075      -16.47158
C         68.79392       76.60065      -16.72221
C         69.23589       76.02985      -15.36295
C         70.35276       76.80771      -14.72784
O         71.42445       76.92341      -15.30229
O         70.18581       77.36281      -13.51294
H         68.35230       78.42461      -18.74720
H         67.15610       77.78040      -16.04457
H         69.67399       76.67169      -17.39913
H         68.09230       75.86250      -17.17067
H         69.61058       74.99566      -15.52501
H         68.36047       75.97632      -14.68088
N         68.35592       79.99899      -15.17471
C         66.95580       80.11374      -14.75786
C         66.47277       78.92313      -13.95043
O         67.10016       78.56324      -12.96395
C         66.71968       81.40906      -13.93715
C         65.20842       81.65603      -13.75384
C         64.88887       82.91538      -13.00502
O         65.21560       83.04158      -11.70606
O         64.25227       83.80258      -13.55092
H         69.00604       80.73114      -14.84643
H         66.34740       80.22757      -15.68122
H         67.13569       82.27371      -14.50024
H         67.23886       81.34879      -12.95452
H         64.73622       80.81439      -13.20533
H         64.74399       81.71736      -14.76316
N         65.30991       78.30243      -14.29573
C         64.76605       77.18908      -13.55383
H         63.79860       76.87722      -14.00433
H         65.46925       76.33168      -13.58824
H         64.58260       77.48835      -12.50024
H         64.76885       78.65086      -15.10000
Ca        64.31815       84.78244      -10.57276
O         63.66586       87.42132       -9.09243
H         64.19386       87.11927       -8.31105
H         64.27232       88.03343       -9.58034
O         61.57280       84.22720       -8.91030
H         61.89626       84.21421       -7.97450
H         61.40861       83.27557       -9.12940
O         63.72600       87.09853      -12.57460
H         64.03023       87.95505      -12.96699
H         63.28808       86.62252      -13.32430
O         64.86128       82.91997       -8.37849
H         65.81037       82.68821       -8.53976
H         64.79503       83.04121       -7.39843
O         66.80090       86.28131      -11.01436
H         67.50010       85.75213      -10.55478
H         66.60584       85.76988      -11.83986

Ca 1.0



