%chk=apoCaM-CA-Ng.loop2.water2.frame823.chk
%nprocshared=20
%mem=10GB
%nosave
#b3lyp/svp scf=(tight,noincore,xqc) Test 
#IOP(5/87=12) Density=Current Pop=(MK,readradii) iop(6/33=2) iop(6/42=6)

apoCaM-CA-Ng.loop2.water2.frame823 

   -2  1 
C         50.76449       87.00591       86.83319
C         51.63219       85.80211       87.04521
O         51.37987       85.03207       87.96096
H         49.93850       87.03398       87.57508
H         51.37891       87.92367       86.94421
H         50.32824       86.98114       85.81208
N         52.67361       85.56559       86.20180
C         53.56579       84.42077       86.32943
C         53.09727       83.25554       85.46098
O         53.81976       82.27235       85.36996
C         55.00334       84.87662       85.99082
C         56.03284       83.82263       86.29980
O         56.75291       83.38554       85.41654
O         56.17304       83.36599       87.55961
H         52.81532       86.20821       85.40604
H         53.57640       84.06574       87.38425
H         55.25584       85.76712       86.60574
H         55.05788       85.16819       84.91809
N         51.86541       83.25085       84.86328
C         51.36696       82.12780       84.07639
C         50.75606       82.61038       82.76177
O         50.58851       83.81216       82.60341
C         50.30849       81.39924       84.91318
H         51.21576       84.03272       85.02752
H         52.20444       81.43253       83.86077
H         50.75975       81.05854       85.86915
H         49.46156       82.08070       85.14420
H         49.90964       80.50704       84.39978
N         50.37800       81.77128       81.74957
C         50.64435       80.33459       81.69215
C         51.58888       80.04675       80.53521
O         51.81298       80.92815       79.71591
C         49.33945       79.50640       81.66570
C         48.39801       79.82139       80.53680
O         48.05346       78.93814       79.77292
O         47.85271       81.04647       80.41616
H         49.94298       82.20549       80.92106
H         51.19403       80.01264       82.59343
H         48.77839       79.68960       82.60471
H         49.60332       78.42612       81.63968
N         52.29323       78.87714       80.48791
C         53.38379       78.67068       79.54483
C         53.36342       77.32394       78.85383
O         54.30246       76.56974       79.06439
H         52.15342       78.17672       81.23126
H         54.32821       78.73563       80.12840
H         53.43503       79.46818       78.77214
N         52.41800       76.94239       77.94910
C         51.23998       77.71178       77.59090
C         51.49516       78.40076       76.26725
O         51.67313       77.73234       75.25800
C         50.03502       76.74837       77.55160
C         48.69254       77.37408       77.29264
N         47.59748       76.58212       77.25060
O         48.57573       78.57950       77.13791
H         52.57217       76.05130       77.44949
H         51.04032       78.48229       78.35709
H         49.97083       76.23263       78.53447
H         50.21462       75.97870       76.76859
H         47.68001       75.56370       77.38251
H         46.66444       76.97946       77.09237
N         51.59386       79.75990       76.22235
C         51.93581       80.49656       75.01898
C         50.82732       80.56283       73.99256
O         51.05232       81.18317       72.96327
H         51.49958       80.29796       77.09651
H         52.86059       80.07012       74.57543
H         52.15264       81.55018       75.30349
N         49.59279       80.02518       74.21401
C         48.46401       80.22195       73.31107
C         47.40118       81.09558       74.02688
O         48.07783       82.05232       74.78111
C         47.89710       78.85264       72.85529
C         48.89934       78.12230       71.95984
O         47.61525       78.02890       73.95740
H         49.40614       79.52877       75.09070
H         48.78386       80.79365       72.41193
H         46.97452       78.99431       72.24934
H         46.88317       78.46051       74.46210
H         48.47438       77.14833       71.63528
H         49.11511       78.72864       71.05454
H         49.84927       77.92915       72.50240
N         46.57146       81.81659       73.04948
C         45.38374       82.48526       73.62433
C         44.19263       81.54057       73.59071
O         43.83296       81.05625       72.52632
C         45.10323       83.80000       72.83990
C         43.74388       84.47133       73.19193
C         46.26472       84.79572       73.03520
C         43.56531       84.89688       74.65276
H         46.32918       81.24602       72.20736
H         45.58209       82.78670       74.67890
H         45.04957       83.54876       71.75748
H         42.91835       83.77407       72.93455
H         43.61540       85.37093       72.55085
H         46.37651       85.07723       74.10426
H         47.22613       84.35415       72.69985
H         46.08723       85.71912       72.44404
H         43.63530       84.02857       75.33419
H         44.31549       85.65695       74.94843
H         42.55627       85.34549       74.77692
N         43.53090       81.25186       74.74332
C         42.42906       80.31186       74.85525
C         41.14613       80.98308       75.32143
O         40.09336       80.48200       74.95456
C         42.81160       79.19774       75.83983
C         44.11802       78.56876       75.46248
O         44.24751       77.98644       74.39708
O         45.16579       78.68535       76.29652
H         43.85502       81.69348       75.60004
H         42.22809       79.84240       73.86555
H         42.02102       78.41730       75.87452
H         42.91841       79.63560       76.85688
N         41.13081       82.07289       76.15995
C         39.87989       82.71173       76.57077
C         40.09685       83.82290       77.62152
O         40.76302       84.79449       77.29523
C         39.18576       83.33567       75.32932
C         37.95436       84.13226       75.69074
C         37.93331       85.51921       75.46285
C         36.83284       83.51411       76.26808
C         36.81524       86.27632       75.81661
C         35.71460       84.27673       76.62186
C         35.70710       85.65670       76.39811
H         42.01496       82.45562       76.51985
H         39.23275       81.92117       76.98462
H         38.90041       82.56101       74.58889
H         39.92414       84.00322       74.83207
H         38.78699       86.01767       75.02015
H         36.82568       82.44674       76.44803
H         36.81185       87.34450       75.64276
H         34.85427       83.79923       77.07210
H         34.84348       86.24700       76.67456
N         39.48874       83.80110       78.86288
C         39.44642       84.93031       79.80334
C         40.75155       85.53440       80.28831
O         40.69305       86.52218       81.00937
C         38.72481       84.35272       81.02562
C         37.75841       83.39364       80.39102
C         38.62918       82.72784       79.33347
H         38.84802       85.72795       79.30862
H         39.44204       83.73390       81.61664
H         38.27217       85.11189       81.69833
H         37.25781       82.68668       81.08545
H         36.98163       84.00528       79.87609
H         39.27018       81.92048       79.75108
H         37.92660       82.32788       78.57872
N         41.95714       84.99867       79.97704
C         43.22886       85.54583       80.45484
C         43.51673       86.97253       79.98644
O         44.50237       87.53357       80.44604
C         44.36716       84.58754       80.06094
C         44.51741       84.46562       78.54099
C         45.26665       83.22653       78.19767
O         46.54216       83.03719       78.54870
O         44.70677       82.35371       77.56649
H         41.95880       84.12304       79.43900
H         43.18453       85.56704       81.56624
H         44.09483       83.59437       80.48345
H         45.34123       84.88795       80.50626
H         45.00494       85.36611       78.10945
H         43.53092       84.37702       78.04279
N         42.71573       87.63707       79.10339
C         42.96349       89.01493       78.73463
H         42.91486       89.66014       79.63880
H         43.96268       89.11448       78.26162
H         42.18913       89.36166       78.01734
H         41.90016       87.17557       78.68000
Ca        47.50291       81.79668       76.95405
O         50.03506       82.68623       77.78291
H         49.33201       83.36988       77.92366
H         49.74006       81.91226       78.32648
O         44.75544       79.91800       79.53234
H         44.30652       79.03956       79.61727
H         44.86776       80.23137       80.46498

Ca 1.0



