%chk=apoCaM-CA-Ng.loop4.water5.frame946.chk
%nprocshared=20
%mem=10GB
%nosave
#b3lyp/svp scf=(tight,noincore,xqc) Test 
#IOP(5/87=12) Density=Current Pop=(MK,readradii) iop(6/33=2) iop(6/42=6)

apoCaM-CA-Ng.loop4.water5.frame946 

   -3  1 
C         68.32890      117.78059       74.79664
C         67.99182      119.21180       74.50681
O         68.63016      119.79269       73.64435
H         69.38404      117.70699       75.13233
H         67.67040      117.35889       75.58401
H         68.19863      117.18128       73.87024
N         66.98242      119.84135       75.18050
C         66.55169      121.22472       74.96091
C         65.86264      121.44207       73.61200
O         65.40005      122.54842       73.37097
C         67.71263      122.21376       75.19808
C         68.30334      122.01529       76.56653
O         69.47199      121.68730       76.68995
O         67.53914      122.17987       77.66282
H         66.48540      119.31457       75.91472
H         65.76920      121.45211       75.71986
H         67.34649      123.26009       75.12034
H         68.49894      122.08039       74.42890
N         65.70960      120.43240       72.70567
C         64.93918      120.54630       71.46763
C         63.47233      120.65081       71.88351
O         63.00985      119.72396       72.53458
C         65.23901      119.28558       70.58012
C         66.74684      119.30002       70.18915
C         64.36518      119.19351       69.31758
C         67.22973      118.06614       69.43409
H         66.09841      119.50896       72.92388
H         65.27687      121.43714       70.90058
H         65.01657      118.38168       71.19064
H         67.37676      119.36735       71.09906
H         66.95393      120.19808       69.56758
H         63.28695      119.25286       69.57345
H         64.63542      119.97811       68.58556
H         64.51742      118.21813       68.81340
H         66.72428      117.96745       68.45331
H         68.31941      118.16922       69.24133
H         67.06024      117.15474       70.04396
N         62.67217      121.73676       71.65155
C         63.02066      122.91149       70.85780
C         62.03870      124.03456       71.13901
O         60.84192      123.84292       70.96788
C         62.97055      122.55093       69.36429
C         63.29004      123.70508       68.46489
O         62.47402      124.07013       67.63386
O         64.48553      124.32022       68.54907
H         61.73524      121.71616       72.08661
H         64.03410      123.27125       71.13494
H         61.96101      122.15265       69.11455
H         63.70970      121.77596       69.15688
N         62.49231      125.25109       71.55190
C         61.61331      126.36745       71.84723
C         61.79849      127.52978       70.89740
O         61.13615      128.53482       71.11430
H         63.50795      125.40229       71.65898
H         61.82824      126.70812       72.88438
H         60.54513      126.07072       71.80694
N         62.68581      127.50282       69.85475
C         62.96754      128.69229       69.05629
C         63.11639      128.47042       67.55107
O         63.14422      129.47412       66.85328
C         64.20999      129.40005       69.65060
C         65.35110      128.46482       69.99334
O         65.90077      127.78821       69.14378
O         65.75396      128.35446       71.27344
H         63.28806      126.67872       69.72718
H         62.11842      129.40731       69.13600
H         63.89635      129.86561       70.60939
H         64.55216      130.21898       68.98124
N         63.26133      127.24888       66.95616
C         63.50469      127.10453       65.51734
C         64.82866      127.72406       65.05229
O         65.09161      127.72982       63.85947
H         63.22498      126.39926       67.52600
H         62.66265      127.57547       64.96534
H         63.52522      126.02485       65.25047
N         65.70908      128.24647       65.95079
C         66.98780      128.88770       65.68279
C         67.99999      127.94652       65.06409
O         68.78508      128.37150       64.22419
C         66.83207      130.24384       64.95777
C         65.94305      131.20289       65.76992
C         65.92310      132.59311       65.19145
N         64.76116      133.17019       64.80494
O         66.96857      133.21875       65.09637
H         65.48134      128.18648       66.93805
H         67.42733      129.12306       66.67949
H         66.41224      130.10498       63.93766
H         67.84211      130.69982       64.86495
H         66.33008      131.27837       66.80911
H         64.91485      130.79660       65.81064
H         63.86473      132.66911       64.88835
H         64.75635      134.13036       64.42957
N         68.07680      126.65150       65.48502
C         69.13106      125.72985       65.07441
C         69.76594      124.98813       66.26160
O         70.70304      124.24498       66.02356
C         68.59155      124.70175       64.03605
C         67.46431      123.81998       64.60021
C         68.11398      125.40593       62.75736
H         67.32967      126.30440       66.10464
H         69.95121      126.29613       64.57748
H         69.43208      124.03431       63.74158
H         66.57827      124.42886       64.87699
H         67.15036      123.07440       63.83878
H         67.81216      123.26247       65.49429
H         67.25341      126.07536       62.96600
H         68.93939      126.00725       62.31977
H         67.79929      124.65508       62.00141
N         69.26332      125.06514       67.53804
C         69.69927      124.17919       68.61398
C         69.96582      124.92879       69.91378
O         69.19472      125.80067       70.27908
C         68.56775      123.16649       68.87502
C         68.95280      122.18148       69.95010
N         68.27117      122.14001       71.11614
O         69.89953      121.42910       69.77362
H         68.45714      125.66241       67.74570
H         70.59380      123.58819       68.31999
H         68.34117      122.60098       67.94529
H         67.64723      123.71694       69.17018
H         67.47917      122.77406       71.29211
H         68.54943      121.48096       71.85323
N         70.95831      124.48309       70.74191
C         71.14996      124.94526       72.11814
C         72.32632      124.20071       72.73068
O         72.31658      122.97728       72.71575
C         69.91281      124.63608       72.99849
C         70.12596      125.14970       74.40461
C         69.85022      126.48956       74.71753
C         70.64104      124.30450       75.40162
C         70.07672      126.97301       76.01016
C         70.87707      124.79118       76.68975
C         70.59449      126.12456       77.00030
O         70.82820      126.57938       78.24777
H         71.56825      123.73047       70.39034
H         71.33415      126.04169       72.11823
H         69.75442      123.53658       73.01609
H         68.97381      125.07256       72.60187
H         69.45814      127.15751       73.96075
H         70.87827      123.27345       75.17467
H         69.85504      128.00764       76.23889
H         71.28474      124.13275       77.44547
H         70.65062      127.49592       78.50289
N         73.35176      124.87543       73.32122
C         74.49968      124.19638       73.90832
C         74.62904      124.50612       75.39790
O         74.82429      125.66401       75.72612
C         75.77676      124.53268       73.08606
C         76.08374      126.01715       72.76422
C         76.49042      126.85310       73.93997
O         77.57272      126.51644       74.66701
O         75.85673      127.85645       74.22888
H         73.31808      125.90446       73.34920
H         74.37956      123.11035       73.80314
H         75.62840      124.05470       72.09232
H         76.66303      124.04815       73.55035
H         75.21640      126.47886       72.24528
H         76.93461      126.04124       72.05092
N         74.54909      123.57081       76.40071
C         74.17310      122.15640       76.29455
C         75.06333      121.34852       75.37453
O         76.27945      121.39350       75.50096
C         74.22151      121.45072       77.67333
C         73.21999      121.99750       78.70045
C         73.27883      121.18263       79.96418
O         72.19258      120.51861       80.40672
O         74.31901      121.11536       80.60011
H         74.73310      123.92768       77.35103
H         73.12421      122.09240       75.92974
H         75.25422      121.50609       78.08604
H         73.97257      120.37622       77.51735
H         72.19779      121.94437       78.27317
H         73.44219      123.05427       78.95181
N         74.48869      120.50981       74.46645
C         75.25830      119.64347       73.60449
H         75.89851      118.97193       74.21580
H         74.57102      119.01303       72.99913
H         75.88723      120.24957       72.92152
H         73.45990      120.45107       74.40952
Ca        70.18753      120.60505       79.36194
O         71.53406      119.06946       77.22311
H         71.66929      119.51154       76.34765
H         72.22093      118.35731       77.25416
O         69.82750      117.75318       80.38973
H         70.70124      117.44029       80.04466
H         69.98170      117.90191       81.35631
O         67.14197      119.93533       79.91182
H         66.88905      120.09640       80.85545
H         66.96989      118.97076       79.76928
O         69.58046      120.85394       82.36295
H         69.04047      120.03479       82.49494
H         70.51337      120.56219       82.51993
O         69.53376      123.52113       79.79765
H         68.97985      124.00958       79.13840
H         69.19822      123.82455       80.67814

Ca 1.0



