%chk=apoCaM-CA-Ng.loop1.water4.frame1021.chk
%nprocshared=20
%mem=10GB
%nosave
#b3lyp/svp scf=(tight,noincore,xqc) Test 
#IOP(5/87=12) Density=Current Pop=(MK,readradii) iop(6/33=2) iop(6/42=6)

apoCaM-CA-Ng.loop1.water4.frame1021 

   0  1 
C         37.62588       29.22087       76.69663
C         38.03955       30.62880       76.37295
O         38.22717       30.93958       75.20583
H         36.66629       28.98882       76.18941
H         38.40528       28.51110       76.35033
H         37.48436       29.07942       77.78978
N         38.19142       31.54384       77.36850
C         38.57817       32.93153       77.13443
C         39.98096       32.99150       76.54407
O         40.90378       32.47657       77.16126
C         38.52211       33.73594       78.45650
C         37.12016       33.87288       78.99566
O         36.41406       32.79034       79.37210
O         36.61882       34.98060       79.10952
H         38.01725       31.23402       78.33630
H         37.85758       33.40533       76.43071
H         38.89023       34.75990       78.27488
H         39.17765       33.27047       79.22405
N         40.21723       33.62553       75.35259
C         41.54628       33.70073       74.75299
C         42.60498       34.40216       75.62326
O         43.74229       33.96449       75.50929
C         41.57541       34.27545       73.30851
C         41.02820       33.34430       72.20331
C         39.51517       33.08155       72.16303
C         38.70378       34.35778       71.90112
N         37.29060       34.05290       71.68461
H         39.42482       34.05752       74.85738
H         41.90727       32.65151       74.64742
H         42.64863       34.39877       73.03939
H         41.12210       35.27861       73.23715
H         41.55502       32.36809       72.27456
H         41.30695       33.79178       71.22279
H         39.17104       32.57926       73.08914
H         39.33590       32.38274       71.31646
H         39.09889       34.86763       70.99315
H         38.79896       35.03843       72.77094
H         36.88822       33.58347       72.52741
H         36.77328       34.94489       71.50900
H         37.18235       33.43495       70.84719
N         42.41997       35.42833       76.51783
C         41.18922       36.15946       76.82384
C         41.23823       36.80922       78.21122
O         42.28151       36.83701       78.84958
C         40.86733       37.18503       75.72325
C         42.03177       38.10306       75.46755
O         42.47632       38.92253       76.43376
O         42.59422       38.09451       74.38440
H         43.26650       35.70861       77.03586
H         40.36644       35.45381       76.90573
H         39.96591       37.77898       75.98697
H         40.62701       36.64530       74.79400
N         40.08873       37.27794       78.77840
C         40.02771       37.78884       80.14048
C         40.57332       39.19195       80.30773
O         40.55798       39.67515       81.43033
H         39.20106       37.17405       78.26419
H         40.54579       37.07985       80.82360
H         38.96298       37.83312       80.45557
N         41.01835       39.92983       79.24951
C         41.46700       41.31649       79.33607
C         40.32216       42.19940       79.86802
O         40.47598       42.79286       80.92671
C         42.73328       41.45132       80.23126
C         43.78802       40.38166       80.05891
O         44.08168       39.69248       81.02282
O         44.44159       40.16088       78.90395
H         41.00656       39.51274       78.31133
H         41.74688       41.64968       78.31256
H         42.42650       41.39312       81.29779
H         43.17570       42.45925       80.07332
N         39.10754       42.31006       79.25594
C         38.76743       41.76912       77.95996
C         39.37902       42.61535       76.87706
O         39.09129       43.80300       76.82232
H         38.36435       42.83634       79.74222
H         37.66667       41.84165       77.81750
H         39.01724       40.69131       77.88993
N         40.17418       42.05461       75.93375
C         40.64428       42.78128       74.75792
C         40.96576       41.74044       73.70738
O         41.85267       40.92889       73.92343
C         41.79631       43.75886       75.10063
C         42.26587       44.56264       73.88558
O         42.88057       43.05561       75.63154
H         40.33567       41.03586       75.99681
H         39.79498       43.38727       74.37181
H         41.41079       44.47762       75.86130
H         43.37873       43.68454       76.21822
H         43.07392       45.26201       74.19265
H         42.66761       43.89242       73.09894
H         41.42733       45.15493       73.46570
N         40.15018       41.62334       72.61893
C         40.10892       40.47913       71.71671
C         41.37735       40.29692       70.91419
O         42.43102       40.03400       71.47527
C         39.74704       39.17485       72.48630
C         38.43006       39.29788       73.29754
C         39.70539       37.95770       71.54794
C         37.17422       39.55321       72.45835
H         39.41367       42.33203       72.47931
H         39.28611       40.66437       70.99458
H         40.54372       38.96671       73.22257
H         38.52806       40.11908       74.03955
H         38.27897       38.35708       73.87057
H         39.46704       37.05693       72.13655
H         38.95687       38.08671       70.74013
H         40.69591       37.78255       71.07953
H         37.00189       38.72992       71.73576
H         36.29238       39.60670       73.12983
H         37.24261       40.51624       71.91344
N         41.30433       40.34250       69.55676
C         42.42035       40.03508       68.68082
C         42.88169       41.26173       67.92348
O         43.81299       41.11665       67.14651
C         42.05930       38.84522       67.75236
C         40.89541       39.13296       66.79165
O         41.74270       37.73211       68.54903
H         40.40512       40.58706       69.11752
H         43.30225       39.70970       69.27639
H         42.96559       38.61379       67.14454
H         41.84354       36.92535       67.97926
H         39.95142       39.32588       67.34058
H         41.12818       40.00247       66.14283
H         40.72734       38.24906       66.14002
N         42.33210       42.50256       68.12493
C         42.86632       43.71464       67.50308
C         44.29860       43.91640       67.98091
O         44.50911       44.40167       69.08375
C         41.98942       44.97527       67.78829
C         40.56372       44.82691       67.24179
O         41.94832       45.33020       69.15315
H         41.52867       42.59141       68.75918
H         42.86186       43.55570       66.40127
H         42.45777       45.82705       67.24948
H         41.82858       44.51615       69.70430
H         40.02215       43.99196       67.73260
H         39.99189       45.76223       67.42042
H         40.59328       44.63940       66.14731
N         45.32260       43.39959       67.24475
C         46.71404       43.29772       67.66980
C         46.89793       42.51267       68.97009
O         45.96304       42.32467       69.73498
C         47.41537       44.66898       67.72375
C         47.49091       45.30679       66.32276
C         48.38524       46.55897       66.28147
C         47.84916       47.77880       67.04923
N         46.63879       48.32657       66.43402
H         45.09813       42.97215       66.33371
H         47.23159       42.69194       66.89154
H         48.45803       44.50780       68.07463
H         46.90656       45.34003       68.44719
H         46.47648       45.52063       65.92582
H         47.96477       44.56521       65.64277
H         48.53731       46.85671       65.22124
H         49.38093       46.28460       66.69371
H         48.63724       48.56409       67.02561
H         47.66127       47.52700       68.11445
H         45.85325       47.64034       66.47833
H         46.35622       49.19002       66.95131
H         46.83032       48.58551       65.43821
N         48.11950       41.97112       69.23970
C         48.45045       41.22724       70.45222
C         47.47309       40.08442       70.74568
O         46.96908       40.06168       71.85851
C         49.91963       40.74466       70.38613
C         50.38946       40.05930       71.68124
C         51.82851       39.61396       71.61707
O         52.50658       39.79327       70.61646
O         52.37696       39.00232       72.68347
H         48.86091       42.09725       68.53298
H         48.39504       41.93759       71.30913
H         50.56798       41.63177       70.20954
H         50.06418       40.05284       69.53590
H         49.76407       39.16351       71.88016
H         50.27921       40.76859       72.52950
N         47.11824       39.10268       69.86666
C         47.55620       39.00864       68.49304
H         48.64830       38.86484       68.43091
H         47.07634       38.12782       68.01536
H         47.24344       39.90782       67.92612
H         46.45309       38.38330       70.19313
Ca        44.18199       41.14457       76.91807
O         44.62053       41.70333       73.31496
H         43.92677       41.92451       72.64568
H         45.47021       41.82897       72.82644
O         46.55673       42.53657       75.96538
H         47.37329       42.28041       75.46814
H         46.72909       43.46044       76.27615
O         45.16798       37.74322       77.19468
H         44.59995       37.73660       78.00443
H         45.95124       37.19137       77.44136
O         46.72823       39.37773       75.23650
H         46.11552       39.36689       74.45892
H         47.61664       39.15919       74.85798

Ca 1.0



