%chk=apoCaM-CA-Ng.loop2.water4.frame1177.chk
%nprocshared=20
%mem=10GB
%nosave
#b3lyp/svp scf=(tight,noincore,xqc) Test 
#IOP(5/87=12) Density=Current Pop=(MK,readradii) iop(6/33=2) iop(6/42=6)

apoCaM-CA-Ng.loop2.water4.frame1177 

   -2  1 
C         27.64593       62.01734       19.53963
C         26.93838       61.87417       20.86124
O         26.16116       60.94165       21.00334
H         28.74275       61.93773       19.69922
H         27.34410       61.20525       18.84371
H         27.40544       62.99013       19.06559
N         27.16760       62.71139       21.91491
C         28.06712       63.86011       21.88463
C         27.35701       65.08448       22.46806
O         26.19962       65.27757       22.12458
C         29.40573       63.43992       22.53037
C         29.25591       62.93020       23.93927
O         28.93508       63.76378       24.94237
O         29.44095       61.74868       24.18024
H         26.70965       62.48979       22.81011
H         28.30325       64.12647       20.83481
H         30.16127       64.25054       22.49062
H         29.80192       62.60388       21.91138
N         27.97109       65.96773       23.32009
C         27.32144       67.13933       23.91835
C         26.24835       66.77667       24.94829
O         25.58784       67.67554       25.44983
C         26.79745       68.09943       22.83858
H         28.96367       65.83449       23.55332
H         28.09394       67.71088       24.48072
H         26.42520       69.03363       23.31076
H         27.62418       68.37260       22.14831
H         25.96535       67.66523       22.25171
N         26.08855       65.49380       25.38055
C         25.16561       65.06442       26.42743
C         25.94223       64.64221       27.66563
O         27.15648       64.79850       27.68113
C         24.24017       63.94754       25.88332
C         24.86105       62.89117       24.98670
O         25.92658       62.12554       25.31248
O         24.36321       62.71932       23.88578
H         26.70181       64.76482       25.00158
H         24.51451       65.89672       26.77584
H         23.46354       64.45258       25.26633
H         23.69144       63.45731       26.71014
N         25.30389       64.11977       28.76050
C         26.01752       63.69706       29.95547
C         25.99940       62.19570       30.08267
O         26.33216       61.52388       29.12107
H         24.28264       63.98610       28.74726
H         25.60380       64.20198       30.85557
H         27.08827       63.98134       29.89290
N         25.73688       61.58488       31.26753
C         25.93755       60.14676       31.42438
C         24.89081       59.35796       30.65229
O         23.71940       59.41399       30.99978
C         25.94957       59.75807       32.91513
C         27.06044       60.48309       33.64361
N         26.78342       61.35822       34.63825
O         28.22305       60.28614       33.32055
H         25.51426       62.16718       32.08980
H         26.94907       59.89617       31.02782
H         26.11709       58.66394       33.02222
H         24.96464       60.00520       33.36644
H         25.81127       61.54985       34.91955
H         27.54497       61.85859       35.12081
N         25.25526       58.59910       29.57651
C         24.32848       57.76549       28.81869
C         23.87158       56.57046       29.63081
O         24.27538       56.45136       30.77978
H         26.23951       58.61182       29.27004
H         24.86796       57.36775       27.93192
H         23.47168       58.36968       28.46188
N         23.08413       55.58039       29.11905
C         22.52731       55.53072       27.76753
C         21.31678       56.44023       27.64424
O         20.41257       56.31817       28.46014
C         22.06481       54.07912       27.45582
C         21.50367       53.93802       26.03148
O         23.15768       53.20821       27.59936
H         22.91215       54.76931       29.73545
H         23.31438       55.77280       27.01883
H         21.26571       53.80134       28.18533
H         22.78573       52.30951       27.80112
H         22.27737       54.20784       25.28154
H         21.18556       52.88898       25.85514
H         20.61535       54.58691       25.88200
N         21.17621       57.27998       26.57623
C         19.93284       58.00590       26.29441
C         19.31987       57.51282       24.97790
O         20.06788       57.02017       24.14348
C         20.15713       59.54521       26.26272
C         21.15060       59.97452       25.15055
C         20.59367       60.03500       27.65360
C         21.25226       61.48906       24.97911
H         21.94725       57.33748       25.89386
H         19.20540       57.80700       27.09899
H         19.18288       60.02092       26.03772
H         20.79978       59.57500       24.17551
H         22.16369       59.56788       25.35180
H         21.58423       59.61935       27.92398
H         20.64469       61.14072       27.69470
H         19.85305       59.71702       28.41852
H         21.65893       61.97781       25.88625
H         21.93002       61.71744       24.13228
H         20.25678       61.91113       24.74206
N         17.99159       57.63657       24.65944
C         16.93506       58.05388       25.58592
C         15.66525       58.51817       24.86359
O         15.58697       58.45106       23.64554
C         16.58692       56.87150       26.53988
C         16.03958       55.63887       25.85407
O         15.69960       54.57061       26.59945
O         15.89910       55.58718       24.64202
H         17.71513       57.33674       23.71177
H         17.27940       58.92684       26.17170
H         15.83720       57.20313       27.28680
H         17.47941       56.54970       27.10662
N         14.60600       58.97337       25.59765
C         13.29522       59.28839       25.03938
C         12.83421       60.68207       25.47083
O         12.88707       60.94635       26.66404
C         12.28212       58.27260       25.60446
C         10.92744       58.47592       24.97450
C          9.88338       59.06791       25.70342
C         10.71078       58.10259       23.63714
C          8.64493       59.29507       25.09700
C          9.46719       58.32029       23.03869
C          8.43636       58.92034       23.76666
H         14.70687       59.02822       26.62170
H         13.29639       59.16789       23.94153
H         12.22796       58.40734       26.70817
H         12.61173       57.22681       25.42045
H         10.03553       59.37566       26.73051
H         11.50578       57.64613       23.05989
H          7.84869       59.76696       25.65735
H          9.30589       58.03024       22.00867
H          7.47696       59.09727       23.29904
N         12.26246       61.59294       24.61548
C         12.05269       61.44413       23.18107
C         13.34712       61.25594       22.43614
O         13.45223       60.34360       21.63012
C         11.37603       62.75930       22.76958
C         10.59133       63.09476       24.01712
C         11.62841       62.80575       25.09628
H         11.35060       60.60608       22.99690
H         12.13233       63.56869       22.65136
H         10.78291       62.69201       21.83222
H         10.16151       64.11786       24.04923
H          9.76296       62.35332       24.11342
H         12.39171       63.61311       25.15490
H         11.11147       62.68029       26.07254
N         14.40762       62.05503       22.73010
C         15.72254       61.86417       22.14452
C         15.71800       62.44959       20.73866
O         15.61239       63.66428       20.63908
C         16.78509       62.54971       23.03787
C         16.82991       61.89603       24.43988
C         17.69892       62.62511       25.42587
O         17.80461       62.15275       26.68261
O         18.28771       63.64974       25.11894
H         14.28762       62.77094       23.46317
H         15.97226       60.79009       22.17319
H         16.52666       63.62763       23.13618
H         17.79299       62.46867       22.57453
H         17.19724       60.85309       24.33558
H         15.81492       61.86319       24.88689
N         15.79083       61.71596       19.58677
C         15.81974       60.27009       19.47219
H         14.93745       59.94361       18.88079
H         16.73875       59.96008       18.93518
H         15.78013       59.72892       20.42908
H         15.78622       62.23221       18.69303
Ca        27.53700       62.19749       26.88766
O         31.04538       60.78614       26.43696
H         30.58997       59.92448       26.26304
H         31.49481       61.00524       25.58216
O         30.31979       63.61750       27.72522
H         30.18107       64.47739       28.19579
H         30.97507       63.82604       27.01275
O         29.51194       61.10813       29.43602
H         29.53993       61.60414       30.29231
H         30.14267       60.35538       29.56295
O         28.05372       59.21450       27.22893
H         27.76158       58.39572       26.75582
H         28.46009       58.88448       28.06917

Ca 1.0



