%chk=apoCaM-CA-Ng.loop3.water5.frame292.chk
%nprocshared=20
%mem=10GB
%nosave
#b3lyp/svp scf=(tight,noincore,xqc) Test 
#IOP(5/87=12) Density=Current Pop=(MK,readradii) iop(6/33=2) iop(6/42=6)

apoCaM-CA-Ng.loop3.water5.frame292 

   0  1 
C         60.69548       28.45363        8.58007
C         60.40120       27.81274        7.25087
O         59.31765       27.27353        7.08171
H         61.71814       28.88822        8.60670
H         59.96363       29.26002        8.78880
H         60.63305       27.68551        9.38071
N         61.34918       27.81247        6.26778
C         61.25157       27.17474        4.95032
C         61.33953       25.63734        4.99382
O         61.55856       25.03276        3.95380
C         60.02493       27.68026        4.16392
C         60.12896       27.33985        2.70494
O         61.02903       27.81324        2.02938
O         59.23715       26.51131        2.13481
H         62.22968       28.31596        6.45930
H         62.16776       27.50584        4.40960
H         59.94933       28.78677        4.24601
H         59.10074       27.23675        4.59262
N         61.23035       24.94870        6.16339
C         61.46009       23.51618        6.33792
C         60.48720       22.66489        5.53729
O         60.92109       21.79143        4.79969
C         61.28987       23.13086        7.83350
C         62.20882       23.90032        8.80482
C         61.86357       23.54340       10.25442
C         62.64663       24.41768       11.24129
N         62.27238       24.10622       12.61969
H         60.99925       25.47576        7.00087
H         62.50487       23.27577        6.03872
H         61.48079       22.04124        7.95361
H         60.23714       23.33098        8.13139
H         62.06116       24.99285        8.71018
H         63.27555       23.67972        8.58637
H         62.07522       22.46761       10.43629
H         60.77874       23.72756       10.42261
H         62.42082       25.49037       11.04174
H         63.73810       24.25693       11.10343
H         62.49529       23.10764       12.83482
H         62.80993       24.72503       13.26840
H         61.24986       24.27803       12.76154
N         59.14541       22.83576        5.69803
C         58.11908       21.95199        5.14548
C         58.23400       21.84279        3.64068
O         58.20340       22.86807        2.97899
C         56.73273       22.49610        5.57113
C         55.56343       21.58257        5.34040
O         54.47950       21.88283        5.81460
O         55.69646       20.39516        4.72901
H         58.84092       23.61864        6.29748
H         58.25190       20.94641        5.60486
H         56.53982       23.48148        5.09652
H         56.76865       22.64303        6.67351
N         58.38834       20.62717        3.03034
C         58.52638       20.48613        1.58648
C         57.29002       20.91321        0.81199
O         57.38798       21.06491       -0.39711
H         58.43860       19.77312        3.60694
H         58.75286       19.43024        1.31969
H         59.39120       21.10694        1.26806
N         56.08879       21.10865        1.42861
C         54.88811       21.58672        0.74782
C         54.95536       23.08035        0.43837
O         53.97646       23.59888       -0.08220
C         53.64266       21.33866        1.63505
C         53.38932       19.87213        1.87815
N         53.11509       19.03610        0.84862
O         53.40903       19.43844        3.01917
H         56.01052       20.87842        2.42338
H         54.74586       21.02496       -0.20101
H         52.73328       21.74497        1.14130
H         53.77293       21.87097        2.60432
H         53.07362       19.38410       -0.12031
H         52.93004       18.03684        1.02088
N         56.05081       23.84685        0.71612
C         56.08226       25.27614        0.48011
C         55.32923       26.02303        1.56338
O         54.16325       25.74481        1.80376
H         56.91020       23.42024        1.07041
H         55.67864       25.49972       -0.52944
H         57.14163       25.61441        0.48396
N         55.95208       27.02781        2.23899
C         55.32712       27.82221        3.29077
C         55.11055       27.00262        4.54067
O         55.91391       26.13929        4.86476
C         56.17197       29.07755        3.57929
C         56.11388       29.96894        2.36083
C         57.19744       30.05487        1.47392
C         54.93492       30.68306        2.07818
C         57.09473       30.82777        0.31221
C         54.84070       31.46701        0.92695
C         55.91893       31.53536        0.03441
O         55.83409       32.27068       -1.09242
H         56.90976       27.27341        1.95615
H         54.33409       28.17663        2.93291
H         57.21090       28.76193        3.81511
H         55.78561       29.64808        4.45323
H         58.10687       29.49944        1.66381
H         54.08682       30.63020        2.75091
H         57.92683       30.86827       -0.37850
H         53.92597       32.01103        0.72550
H         55.03533       32.76656       -1.32341
N         53.98338       27.22004        5.26556
C         53.55498       26.42123        6.40256
C         52.27608       25.71253        5.99537
O         52.20700       24.50272        6.16393
C         53.39308       27.30152        7.67925
C         54.76927       27.92537        8.04508
C         52.85445       26.45613        8.85642
C         54.75686       28.82473        9.28398
H         53.36684       27.98768        4.96222
H         54.30594       25.63575        6.64993
H         52.66097       28.11416        7.47289
H         55.12496       28.54339        7.19332
H         55.51173       27.11440        8.21625
H         53.56765       25.64748        9.12170
H         52.66849       27.08507        9.75044
H         51.88290       25.98893        8.60955
H         54.50223       28.25331       10.19989
H         55.77304       29.24660        9.43761
H         54.03856       29.66016        9.15291
N         51.24654       26.38042        5.38780
C         50.03283       25.69520        4.96768
C         49.11687       25.44984        6.14881
O         48.18246       24.67454        6.00152
C         49.31121       26.46289        3.84805
O         48.91192       27.73001        4.29348
H         51.33316       27.38552        5.18515
H         50.32638       24.71541        4.52632
H         48.41972       25.88675        3.51329
H         50.01583       26.56502        2.98988
H         48.64771       28.23537        3.48066
N         49.32657       26.06579        7.35611
C         48.53329       25.81878        8.55039
C         48.67772       24.38260        9.03912
O         47.90500       23.98222        9.89712
C         47.06831       26.22712        8.32409
H         50.08743       26.75159        7.45281
H         48.90487       26.47140        9.37192
H         47.02531       27.29288        8.01127
H         46.56845       25.60826        7.55398
H         46.49504       26.12783        9.27020
N         49.68488       23.56945        8.58728
C         49.84539       22.18546        9.01183
C         51.12442       21.99035        9.80604
O         51.92454       22.90672        9.92943
C         49.83347       21.28201        7.77690
H         50.38282       23.93470        7.92690
H         49.00491       21.88916        9.67540
H         48.88438       21.41928        7.21691
H         50.68128       21.54443        7.10755
H         49.92052       20.21282        8.06114
N         51.32924       20.79685       10.43674
C         52.45537       20.46970       11.30596
C         52.54550       21.33049       12.56668
O         53.46898       21.10980       13.34014
C         53.81125       20.48183       10.56865
C         53.85720       19.55928        9.33718
C         55.27366       19.20227        8.95491
O         55.50107       18.33910        7.95117
O         56.22520       19.59764        9.61216
H         50.61690       20.06060       10.31904
H         52.30486       19.42347       11.65903
H         54.54322       20.09376       11.31205
H         54.12872       21.50687       10.27908
H         53.31298       20.03003        8.48902
H         53.36499       18.59515        9.58287
N         51.64659       22.31001       12.86928
C         51.79708       23.13473       14.04861
H         52.75417       23.69741       13.99194
H         50.96217       23.86361       14.11212
H         51.79402       22.50234       14.96153
H         50.83325       22.49121       12.26849
Ca        54.78648       18.71187        5.86622
O         52.94020       16.48124        3.97921
H         52.01865       16.31385        3.65831
H         53.52119       16.11248        3.26744
O         55.89375       17.61227        3.06401
H         55.97603       18.26343        2.32327
H         56.82377       17.46239        3.36763
O         51.62517       19.47980        5.48381
H         51.38377       20.28013        4.95298
H         50.75623       19.08634        5.74924
O         56.05228       16.04726        5.85489
H         56.02318       15.06703        5.98482
H         56.60859       16.38028        6.60293
O         52.62238       16.75943        7.09910
H         52.05411       17.43458        7.54801
H         53.23554       16.43968        7.80765

Ca 1.0



