%chk=apoCaM-CA-Ng.loop2.water5.frame1362.chk
%nprocshared=20
%mem=10GB
%nosave
#b3lyp/svp scf=(tight,noincore,xqc) Test 
#IOP(5/87=12) Density=Current Pop=(MK,readradii) iop(6/33=2) iop(6/42=6)

apoCaM-CA-Ng.loop2.water5.frame1362 

   -2  1 
C         80.54383       63.43887       78.05269
C         80.68855       63.60479       76.56717
O         81.71507       64.10943       76.13628
H         79.66248       64.01374       78.40721
H         80.42359       62.36533       78.30591
H         81.44513       63.82418       78.57569
N         79.71792       63.23112       75.68721
C         78.44349       62.61748       76.05009
C         77.26953       63.53325       75.71774
O         76.13642       63.07921       75.80311
C         78.32953       61.22669       75.38081
C         78.26206       61.23141       73.87659
O         78.21597       60.16897       73.27793
O         78.22719       62.38207       73.17987
H         79.89606       63.40508       74.68724
H         78.38284       62.42288       77.14026
H         77.41836       60.71204       75.75762
H         79.20987       60.62277       75.69280
N         77.45720       64.85585       75.41591
C         76.36327       65.78064       75.14246
C         76.68945       66.63914       73.92297
O         76.46608       67.84235       73.95881
C         76.17599       66.66400       76.38456
H         78.40661       65.25470       75.44863
H         75.41605       65.22660       74.96161
H         75.96090       66.03365       77.27293
H         77.10767       67.24022       76.58297
H         75.33515       67.37492       76.24425
N         77.32618       66.10099       72.84557
C         77.84803       66.90964       71.74108
C         77.36383       66.38867       70.39395
O         76.64960       65.39540       70.35280
C         79.39608       66.90725       71.83519
C         79.92488       65.50775       71.70625
O         80.48904       64.96486       72.64243
O         79.65652       64.81928       70.58290
H         77.54391       65.09236       72.85607
H         77.51424       67.96574       71.82938
H         79.68742       67.33161       72.82294
H         79.84768       67.54905       71.05053
N         77.76217       67.00140       69.23952
C         77.41132       66.52229       67.91195
C         78.65538       66.11844       67.16082
O         79.34783       65.22852       67.62967
H         78.36047       67.83908       69.29742
H         76.85839       67.31869       67.37196
H         76.75383       65.62801       67.96127
N         79.00220       66.71629       65.98322
C         80.15898       66.30098       65.19400
C         81.21420       67.38782       65.17619
O         80.93626       68.51263       64.78303
C         79.75429       65.91944       63.75688
C         78.86933       64.69590       63.73548
N         79.30347       63.54146       63.17418
O         77.75489       64.74308       64.23399
H         78.41990       67.48810       65.62235
H         80.62628       65.39135       65.63025
H         80.68636       65.69210       63.19243
H         79.24807       66.76429       63.24057
H         80.24407       63.47328       62.75788
H         78.70307       62.70371       63.16728
N         82.48547       67.07633       65.55705
C         83.59929       68.00208       65.53752
C         83.49073       69.03394       66.64286
O         83.33693       68.62565       67.78470
H         82.69865       66.10527       65.83064
H         83.70227       68.41988       64.51822
H         84.52554       67.42523       65.74764
N         83.60163       70.38123       66.43765
C         83.81956       71.00044       65.13314
C         85.12357       70.54213       64.48542
O         85.19934       70.58625       63.26665
C         83.77535       72.54909       65.20230
C         82.40604       73.07660       65.67464
O         84.82763       73.05210       65.99421
H         83.52331       70.98750       67.26812
H         82.98185       70.67564       64.47562
H         83.91621       72.94729       64.17384
H         84.52976       73.09034       66.94036
H         82.16833       72.74113       66.70571
H         82.40727       74.18699       65.66496
H         81.60365       72.71879       64.99547
N         86.16312       70.04918       65.22618
C         87.37477       69.46885       64.64742
C         87.48814       68.02384       65.14480
O         87.46202       67.83935       66.35336
C         88.64817       70.26528       65.06180
C         88.56697       71.78035       64.73926
C         89.90790       69.64839       64.41406
C         88.36790       72.13347       63.26122
H         86.08898       70.05853       66.25418
H         87.33583       69.51232       63.54650
H         88.77134       70.18787       66.16498
H         89.50912       72.26144       65.08413
H         87.73464       72.23146       65.31948
H         90.03143       68.58889       64.71890
H         89.85149       69.67609       63.30602
H         90.81941       70.19451       64.73325
H         88.35168       73.23808       63.15133
H         89.18995       71.74050       62.63045
H         87.40365       71.74518       62.88465
N         87.67858       66.94036       64.33091
C         87.82033       67.00406       62.87985
C         88.53188       65.78332       62.29871
O         88.76067       64.80055       62.99422
C         86.43723       67.20743       62.20037
C         85.43927       66.10465       62.46671
O         84.32484       66.17664       61.97384
O         85.74436       65.04832       63.24553
H         87.81191       66.03222       64.80326
H         88.49986       67.84586       62.63758
H         86.57570       67.29592       61.10228
H         85.97139       68.14732       62.54779
N         88.92173       65.80654       60.99393
C         89.52366       64.68617       60.28296
C         90.89642       65.06150       59.73982
O         91.00795       66.13087       59.14892
C         88.56262       64.28938       59.14278
C         89.07434       63.12003       58.33527
C         90.11442       63.29096       57.40188
C         88.52087       61.84228       58.51462
C         90.60101       62.20217       56.67726
C         89.01370       60.75372       57.78941
C         90.05402       60.93298       56.87352
H         88.74526       66.66715       60.45004
H         89.60536       63.80010       60.94311
H         88.34833       65.14292       58.46242
H         87.60187       64.01232       59.63113
H         90.55048       64.26606       57.23001
H         87.72157       61.68500       59.22796
H         91.40403       62.34431       55.96556
H         88.59116       59.76974       57.94137
H         90.43547       60.08931       56.31442
N         91.97402       64.21228       59.79000
C         91.97928       62.86966       60.36093
C         91.95825       62.92548       61.87340
O         91.16575       62.20804       62.47016
C         93.23056       62.22870       59.74672
C         94.18333       63.38873       59.58315
C         93.24173       64.51349       59.14556
H         91.12856       62.24497       60.01235
H         93.62075       61.33276       60.27564
H         92.96196       61.91782       58.70989
H         94.60394       63.61289       60.58115
H         95.03955       63.21156       58.89795
H         93.66611       65.49500       59.44929
H         93.07639       64.49350       58.04560
N         92.72523       63.81349       62.56031
C         92.62056       63.98632       63.99920
C         93.42516       62.89311       64.69383
O         94.64164       62.92814       64.56677
C         93.13847       65.39029       64.39047
C         92.30037       66.49914       63.71871
C         92.87228       67.85720       63.99617
O         92.98007       68.30359       65.26129
O         93.23549       68.56828       63.07204
H         93.31578       64.46936       62.03306
H         91.55219       63.99138       64.27804
H         94.20099       65.49004       64.07338
H         93.08738       65.51766       65.49421
H         91.25410       66.45345       64.08965
H         92.27351       66.35713       62.61694
N         92.88752       61.87107       65.42652
C         91.47928       61.58311       65.62158
H         90.79224       62.27489       65.11253
H         91.26770       60.56731       65.22383
H         91.24509       61.59297       66.70530
H         93.54157       61.20213       65.86292
Ca        79.34341       62.59967       70.59397
O         80.54868       62.50189       68.02415
H         80.02224       62.61380       67.19353
H         81.08928       63.32854       68.09602
O         78.74882       59.84486       69.70654
H         78.06559       59.54748       69.05502
H         78.56262       59.31714       70.52319
O         81.71484       61.34069       71.39254
H         81.82693       61.48058       70.41822
H         81.15028       60.52988       71.46189
O         77.08320       62.52960       68.29142
H         77.34731       61.86569       67.60589
H         76.13731       62.73705       68.08506
O         75.74884       61.76616       71.20145
H         76.25108       61.11390       71.74952
H         75.00718       61.23670       70.81520

Ca 1.0



