%chk=apoCaM-CA-Ng.loop4.water4.frame981.chk
%nprocshared=20
%mem=10GB
%nosave
#b3lyp/svp scf=(tight,noincore,xqc) Test 
#IOP(5/87=12) Density=Current Pop=(MK,readradii) iop(6/33=2) iop(6/42=6)

apoCaM-CA-Ng.loop4.water4.frame981 

   -3  1 
C         52.48979      114.58985       79.49478
C         52.78154      115.96242       80.02689
O         52.72052      116.91669       79.26596
H         51.45675      114.56069       79.08952
H         53.20985      114.34195       78.68784
H         52.57491      113.81951       80.29090
N         53.09842      116.13344       81.34088
C         53.38477      117.41658       81.97162
C         52.18264      118.33999       81.88326
O         52.33228      119.48218       81.47602
C         54.65110      118.07371       81.37339
C         55.84180      117.16319       81.41413
O         56.30315      116.70041       82.59076
O         56.40212      116.84628       80.37704
H         53.13143      115.30162       81.95043
H         53.57284      117.22238       83.05165
H         54.89311      118.99923       81.93991
H         54.45476      118.36324       80.31919
N         50.94885      117.90228       82.26286
C         49.74925      118.73400       82.21321
C         49.28005      118.87107       83.65645
O         48.94113      117.84742       84.23512
C         48.67379      118.07572       81.27795
C         49.27656      117.77875       79.87727
C         47.42402      118.96476       81.14375
C         48.32086      117.10630       78.89043
H         50.85459      116.93499       82.61092
H         49.99849      119.72448       81.78947
H         48.36403      117.10715       81.72858
H         50.14200      117.09684       79.99810
H         49.62779      118.71779       79.41411
H         47.00361      119.21245       82.13999
H         47.67015      119.89577       80.59044
H         46.62224      118.44715       80.58076
H         47.47704      117.77606       78.62664
H         48.86799      116.88405       77.94911
H         47.93126      116.15623       79.31034
N         49.30804      120.03741       84.37340
C         49.64836      121.36674       83.86372
C         49.90935      122.31712       85.02343
O         49.08508      122.39665       85.92474
C         48.48644      121.89411       83.00751
C         48.72865      123.26849       82.46559
O         47.83168      124.23991       82.70691
O         49.71240      123.50424       81.78318
H         49.07209      119.95584       85.37577
H         50.57840      121.31695       83.25640
H         47.54861      121.89659       83.60615
H         48.34317      121.23507       82.14743
N         51.04016      123.08360       85.05277
C         51.39204      123.92440       86.18643
C         51.39081      125.41116       85.90014
O         51.69320      126.14574       86.83006
H         51.69392      123.05299       84.25455
H         52.40751      123.62744       86.53033
H         50.69732      123.76069       87.03524
N         51.09792      125.94551       84.67564
C         51.17583      127.38616       84.41962
C         49.93526      127.99977       83.77369
O         49.90840      129.21848       83.67791
C         52.45788      127.69152       83.60860
C         52.68290      126.78984       82.41745
O         51.89628      126.75154       81.48987
O         53.77628      126.00500       82.37865
H         50.89853      125.31620       83.88473
H         51.27925      127.94203       85.37765
H         53.32067      127.53184       84.29006
H         52.47562      128.76011       83.30038
N         48.88388      127.27127       83.29612
C         47.72822      127.88323       82.63591
C         48.06104      128.60577       81.33007
O         47.16245      129.19502       80.74737
H         48.89190      126.25320       83.40383
H         47.25693      128.60506       83.33890
H         46.97693      127.09733       82.40335
N         49.32687      128.61346       80.81970
C         49.77952      129.33153       79.63517
C         49.21375      128.77225       78.33847
O         49.35928      129.41857       77.31044
C         49.61733      130.86245       79.78750
C         50.19997      131.34825       81.13096
C         50.24556      132.84523       81.28844
N         50.66471      133.37741       82.46051
O         49.91239      133.58305       80.37283
H         50.05392      128.09970       81.30909
H         50.87860      129.16934       79.55202
H         48.55067      131.16399       79.72478
H         50.17006      131.34572       78.95094
H         51.23470      130.96108       81.26007
H         49.56270      130.95082       81.94490
H         50.93892      132.76737       83.24569
H         50.70691      134.39883       82.58999
N         48.66645      127.52087       78.29161
C         48.21973      126.87670       77.05564
C         49.04154      125.63268       76.71955
O         48.87061      125.11168       75.62509
C         46.71209      126.50629       77.14680
C         46.40520      125.55507       78.32321
C         45.84604      127.76579       77.25564
H         48.59830      126.98298       79.16453
H         48.36186      127.56863       76.19650
H         46.42295      125.98793       76.20538
H         47.01212      124.62799       78.25354
H         46.60481      126.03717       79.30330
H         45.33443      125.26343       78.31047
H         46.08378      128.33431       78.17938
H         46.01845      128.42044       76.37517
H         44.77063      127.48795       77.27462
N         49.89785      125.06354       77.61577
C         50.61988      123.82044       77.37597
C         52.09563      123.99343       77.75381
O         52.47572      125.05507       78.23085
C         49.91635      122.74743       78.24232
C         50.51258      121.37415       78.14336
N         51.10520      120.81632       79.22112
O         50.48886      120.77096       77.08052
H         49.98435      125.46102       78.56046
H         50.55313      123.51481       76.30801
H         48.84634      122.67357       77.94741
H         49.94828      123.08843       79.29605
H         51.13994      121.31809       80.12115
H         51.55035      119.89102       79.14668
N         52.97538      122.96231       77.60537
C         54.34987      122.97478       78.08319
C         55.27132      122.57061       76.95572
O         55.06193      121.50868       76.38874
C         54.45131      121.97138       79.25231
C         55.82642      121.90046       79.87339
C         56.41012      123.03695       80.45884
C         56.52929      120.68512       79.89352
C         57.67639      122.95702       81.04712
C         57.79000      120.60528       80.48934
C         58.36991      121.74249       81.06565
O         59.58795      121.67895       81.63998
H         52.65115      122.08485       77.18064
H         54.62829      123.97879       78.46894
H         54.13939      120.96433       78.89395
H         53.73424      122.27448       80.04617
H         55.88635      123.98407       80.46447
H         56.10296      119.79656       79.44924
H         58.11658      123.83957       81.49355
H         58.31581      119.65944       80.50247
H         60.09825      120.85695       81.67260
N         56.31463      123.36028       76.57776
C         57.22869      123.00234       75.50163
C         58.63882      122.91813       76.06285
O         59.29842      123.94726       76.10873
C         57.08549      124.04941       74.36514
C         57.85234      123.72112       73.06762
C         59.34568      123.81044       73.19752
O         59.87506      124.87092       73.49172
O         60.11051      122.72759       72.96180
H         56.46921      124.25457       77.06912
H         56.94873      122.03382       75.05082
H         57.35680      125.06656       74.72574
H         56.00821      124.07618       74.08899
H         57.54800      124.45025       72.28560
H         57.56064      122.70649       72.72110
N         59.19390      121.78126       76.58265
C         58.55152      120.47674       76.75562
C         58.16670      119.83021       75.43923
O         59.00665      119.70673       74.55891
C         59.51136      119.54149       77.52929
C         58.88821      118.17561       77.87093
C         59.81121      117.32050       78.69932
O         59.44801      116.21061       79.05084
O         61.03118      117.76075       79.06775
H         60.15788      121.87818       76.94199
H         57.65042      120.61092       77.38929
H         59.78446      120.04600       78.48209
H         60.44223      119.38584       76.93958
H         58.64532      117.62684       76.93620
H         57.94879      118.33052       78.44193
N         56.90324      119.34399       75.27166
C         56.43859      118.68624       74.06929
H         55.56262      119.23737       73.66719
H         57.22012      118.63811       73.28381
H         56.12231      117.65118       74.31963
H         56.23158      119.41400       76.04877
Ca        57.71813      114.18616       80.71292
O         56.99773      114.24853       77.73890
H         57.77252      114.81852       77.50509
H         56.30917      114.88474       78.05770
O         60.78564      113.87848       81.09268
H         60.93009      113.64896       80.14040
H         61.19412      114.77431       81.19572
O         57.62815      113.67189       83.63433
H         57.95343      114.41893       84.19671
H         57.14439      113.07747       84.26081
O         59.37171      116.67604       82.43138
H         59.38716      117.32929       81.68773
H         60.30307      116.65925       82.76670

Ca 1.0



