%chk=apoCaM-CA-Ng.loop3.water2.frame956.chk
%nprocshared=20
%mem=10GB
%nosave
#b3lyp/svp scf=(tight,noincore,xqc) Test 
#IOP(5/87=12) Density=Current Pop=(MK,readradii) iop(6/33=2) iop(6/42=6)

apoCaM-CA-Ng.loop3.water2.frame956 

   0  1 
C         71.28211      110.21689       31.50365
C         70.97332      111.67499       31.38510
O         69.85122      112.06652       31.66951
H         72.10241      110.07713       32.23867
H         70.38942      109.65708       31.85674
H         71.59469      109.81887       30.51708
N         71.94137      112.54616       30.98432
C         71.73677      113.98346       30.91470
C         71.96879      114.46388       29.48406
O         73.05899      114.28734       28.95863
C         72.66967      114.65190       31.94176
C         72.38133      116.10489       32.12795
O         73.07663      116.77398       32.87509
O         71.42105      116.69690       31.40487
H         72.87683      112.17657       30.75373
H         70.69725      114.22855       31.21257
H         73.72698      114.51973       31.62571
H         72.54555      114.16514       32.92676
N         70.94918      115.03163       28.77763
C         71.03642      115.38199       27.35732
C         72.02621      116.50674       27.06747
O         72.55684      116.51896       25.96521
C         69.63671      115.74345       26.81030
C         68.68019      114.52906       26.83469
C         67.20099      114.91545       26.68346
C         66.87113      115.70068       25.40822
N         65.44398      116.02282       25.36561
H         70.04381      115.15205       29.25720
H         71.38147      114.48397       26.79565
H         69.70807      116.09974       25.75877
H         69.22863      116.56790       27.42582
H         68.74607      114.00008       27.80821
H         68.98672      113.80751       26.04487
H         66.91106      115.53068       27.56290
H         66.59669      113.98137       26.70304
H         67.14566      115.10230       24.51209
H         67.44867      116.65011       25.39379
H         65.24334      116.59231       24.51252
H         64.87707      115.14452       25.33088
H         65.17505      116.57861       26.21083
N         72.29377      117.50301       27.96480
C         73.26027      118.57782       27.71100
C         74.39177      118.61952       28.74061
O         75.29965      119.42021       28.56109
C         72.54256      119.93894       27.50621
C         71.53840      120.36327       28.55195
O         70.36187      120.46175       28.24347
O         71.89623      120.64155       29.81501
H         71.78966      117.50351       28.85947
H         73.78538      118.39172       26.74681
H         71.98246      119.84649       26.55009
H         73.29531      120.74478       27.36550
N         74.46927      117.73518       29.77889
C         75.62235      117.63801       30.66234
C         75.68467      118.67793       31.76171
O         76.61964      118.59754       32.54675
H         73.74681      117.01437       29.88800
H         76.55797      117.65945       30.05884
H         75.58825      116.64931       31.16754
N         74.75619      119.67005       31.90242
C         74.84100      120.69625       32.93844
C         73.60447      120.74804       33.82837
O         72.56326      120.21093       33.48110
C         75.00050      122.06519       32.25390
C         76.19664      122.09194       31.33611
N         76.03952      122.27810       30.00357
O         77.31659      121.93605       31.79863
H         73.99752      119.74638       31.22078
H         75.71821      120.50584       33.59518
H         75.10395      122.87151       33.01055
H         74.07785      122.26707       31.66356
H         75.10277      122.40098       29.59089
H         76.85739      122.29054       29.37678
N         73.67239      121.42909       35.00770
C         72.55012      121.71299       35.89045
C         71.75343      120.49826       36.31607
O         72.32578      119.52197       36.77792
H         74.58688      121.81339       35.29193
H         71.87898      122.44527       35.39278
H         72.94833      122.20618       36.80374
N         70.38944      120.54180       36.24650
C         69.50304      119.45315       36.65724
C         69.59324      118.26757       35.71580
O         70.37575      118.30322       34.77634
C         68.04319      119.97891       36.74887
C         67.86899      120.87906       37.95048
C         67.51657      122.23102       37.81269
C         68.04363      120.34556       39.24153
C         67.35229      123.03422       38.94924
C         67.88013      121.14702       40.37100
C         67.53517      122.49281       40.23194
O         67.37984      123.25112       41.33577
H         69.95536      121.42120       35.92470
H         69.80671      119.08320       37.65923
H         67.31447      119.15631       36.89042
H         67.77274      120.48740       35.79646
H         67.36988      122.66355       36.83123
H         68.30183      119.30253       39.37685
H         67.08166      124.07581       38.83337
H         68.01958      120.71768       41.35554
H         67.13923      124.18688       41.28961
N         68.82085      117.16018       35.94716
C         68.84454      115.91950       35.17681
C         68.43439      116.16064       33.72617
O         69.08604      116.93244       33.04195
C         70.22689      115.21431       35.31418
C         70.28610      113.85364       34.57234
C         70.60531      115.03315       36.79865
C         69.29504      112.78702       35.04757
H         68.18457      117.16827       36.75837
H         68.09670      115.23914       35.63733
H         71.00818      115.85923       34.85819
H         71.30804      113.43399       34.69000
H         70.11038      114.02860       33.49297
H         69.85040      114.42368       37.33722
H         71.59717      114.54154       36.88738
H         70.67650      116.01541       37.31122
H         69.44948      111.86119       34.45467
H         69.45557      112.53502       36.11493
H         68.24750      113.11194       34.89553
N         67.37608      115.49165       33.17693
C         66.97068      115.67328       31.78292
C         65.49995      116.02640       31.61553
O         65.10573      116.26000       30.47819
C         67.29888      114.40555       30.98814
O         66.57029      113.31357       31.48603
H         66.88197      114.78929       33.74552
H         67.54765      116.50113       31.32517
H         68.39451      114.23003       31.06140
H         67.05918      114.54531       29.91213
H         67.20561      112.55972       31.59443
N         64.61531      116.07120       32.65586
C         63.20140      116.38093       32.44683
C         63.02514      117.80630       31.93978
O         63.96382      118.58223       32.05618
C         62.42749      116.19985       33.75437
H         64.93538      115.84990       33.60993
H         62.81653      115.66297       31.68939
H         62.83557      116.86353       34.54516
H         61.36592      116.45894       33.61820
H         62.50169      115.14440       34.09525
N         61.89349      118.25535       31.31841
C         60.70413      117.47238       30.99138
C         59.44846      118.19960       31.45802
O         59.39473      119.41168       31.29923
C         60.63341      117.32334       29.46837
H         61.90984      119.23067       30.97830
H         60.74984      116.44613       31.39655
H         59.73813      116.73198       29.17799
H         60.58002      118.31659       28.97236
H         61.53580      116.79025       29.09988
N         58.33332      117.56440       31.92430
C         58.18076      116.12145       32.05285
C         58.87622      115.63378       33.30677
O         59.62108      114.66625       33.23857
C         56.67963      115.74992       32.09121
C         56.38844      114.24075       31.94075
C         56.69038      113.70443       30.55793
O         57.95029      113.65828       30.08499
O         55.78195      113.27827       29.86218
H         57.50536      118.15302       32.11272
H         58.59267      115.64863       31.14508
H         56.14718      116.26644       31.26190
H         56.24363      116.11542       33.04690
H         55.30012      114.10103       32.12100
H         56.93582      113.65020       32.70498
N         58.68985      116.29122       34.49001
C         59.33151      115.91891       35.73504
H         59.99866      116.74427       36.06543
H         58.55713      115.75840       36.51401
H         59.93742      114.99438       35.64037
H         58.08646      117.12744       34.51039
Ca        71.78706      118.83704       31.08121
O         68.69364      118.15940       29.71654
H         67.99233      117.69098       29.19776
H         69.54463      117.86791       29.30779
O         67.98095      119.81569       32.25047
H         67.62469      120.64793       32.65116
H         67.28642      119.53684       31.60205

Ca 1.0



