%chk=apoCaM-CA-Ng.loop3.water5.frame451.chk
%nprocshared=20
%mem=10GB
%nosave
#b3lyp/svp scf=(tight,noincore,xqc) Test 
#IOP(5/87=12) Density=Current Pop=(MK,readradii) iop(6/33=2) iop(6/42=6)

apoCaM-CA-Ng.loop3.water5.frame451 

   0  1 
C         72.75688       63.42049       93.50684
C         72.40405       61.97442       93.31373
O         71.31348       61.58030       93.69595
H         73.76727       63.64784       93.10550
H         72.01779       64.05556       92.97410
H         72.74057       63.66928       94.58793
N         73.28471       61.12395       92.71174
C         73.02306       59.71566       92.42444
C         72.92873       58.84180       93.67984
O         72.69471       57.64940       93.52494
C         71.78887       59.59012       91.49334
C         71.68414       58.23618       90.84612
O         72.58228       57.83170       90.12404
O         70.58748       57.47763       91.03099
H         74.18977       61.50155       92.39265
H         73.89929       59.33880       91.85072
H         71.88376       60.32954       90.66834
H         70.85347       59.81143       92.04938
N         73.15080       59.32793       94.94184
C         73.12255       58.49210       96.14177
C         72.05921       58.93662       97.13685
O         71.96757       58.32336       98.19009
C         74.49629       58.48897       96.83666
C         75.63245       58.06460       95.89346
C         76.99041       57.98952       96.61475
C         77.12777       56.83183       97.62629
N         77.08035       55.52045       96.97392
H         73.39014       60.32100       95.07419
H         72.88835       57.43632       95.87754
H         74.43745       57.78190       97.69055
H         74.71873       59.50377       97.23428
H         75.71373       58.83402       95.09596
H         75.40109       57.09825       95.40043
H         77.16467       58.95489       97.13866
H         77.79129       57.87162       95.85423
H         76.35299       56.88937       98.41945
H         78.11501       56.93639       98.12754
H         77.81778       55.46104       96.23404
H         77.26452       54.77769       97.68621
H         76.14086       55.34279       96.55464
N         71.18796       59.95696       96.86468
C         70.08302       60.31924       97.75527
C         69.20805       59.09389       98.02587
O         69.36115       58.07520       97.36213
C         69.31019       61.52470       97.12373
C         67.89547       61.72071       97.59223
O         67.43541       62.82016       98.21328
O         67.08907       60.85449       97.32832
H         71.27605       60.45910       95.97428
H         70.49696       60.63270       98.73850
H         69.20337       61.33921       96.03184
H         69.91541       62.44868       97.24509
N         68.29588       59.10627       99.03986
C         67.47067       57.95471       99.35765
C         66.60583       57.59574       98.17565
O         66.74028       56.51147       97.62818
H         68.19401       59.95505       99.61755
H         66.81812       58.18957      100.22843
H         68.12681       57.10401       99.63991
N         65.68485       58.48979       97.73535
C         64.78337       58.25991       96.61352
C         65.42352       58.53159       95.23826
O         64.70385       58.45521       94.25176
C         63.51127       59.10260       96.84676
C         63.78814       60.60500       96.69101
N         63.31380       61.08622       95.40046
O         63.27024       61.39349       97.72628
H         65.55508       59.34040       98.30331
H         64.43528       57.20353       96.64761
H         63.14628       58.88134       97.87416
H         62.70385       58.78157       96.15165
H         62.28581       60.90551       95.33099
H         63.43255       62.11931       95.38682
N         66.75334       58.82074       95.07614
C         67.36648       59.01847       93.76523
C         67.27870       60.44194       93.23575
O         67.58755       60.64070       92.06979
H         67.38154       58.79466       95.88671
H         66.95095       58.28547       93.04078
H         68.45495       58.79458       93.83252
N         66.99240       61.49286       94.05618
C         67.03946       62.89587       93.65413
C         65.76082       63.58352       94.06677
O         65.40085       63.53270       95.23407
C         68.24881       63.57855       94.32167
C         68.36364       65.05776       94.01647
C         68.45470       65.52503       92.69299
C         68.39689       65.98720       95.07099
C         68.57230       66.89500       92.43331
C         68.52333       67.35368       94.80920
C         68.61142       67.81261       93.48808
O         68.73426       69.12879       93.22176
H         66.80376       61.30159       95.04284
H         67.18096       62.98544       92.55564
H         69.17220       63.07682       93.96601
H         68.18282       63.43761       95.41863
H         68.43300       64.83459       91.86034
H         68.33482       65.65543       96.09977
H         68.63629       67.24414       91.41035
H         68.55432       68.05392       95.63452
H         68.77224       69.79434       93.92376
N         65.04512       64.28843       93.15367
C         63.78142       64.93840       93.46249
C         62.68081       63.89972       93.37832
O         61.87304       63.81672       94.29309
C         63.52974       66.14010       92.50403
C         64.70356       67.16229       92.51248
C         62.20828       66.86340       92.83875
C         65.00777       67.79999       93.87483
H         65.40662       64.35444       92.18992
H         63.80570       65.36629       94.48911
H         63.44548       65.74976       91.46529
H         64.47194       67.97539       91.79092
H         65.63073       66.66927       92.15511
H         61.34391       66.18372       92.76499
H         62.21133       67.26785       93.87089
H         62.03649       67.69556       92.12342
H         64.13453       68.35419       94.27259
H         65.32791       67.03537       94.61048
H         65.83865       68.52575       93.76228
N         62.61555       63.03786       92.31771
C         61.56512       62.03135       92.19019
C         60.21735       62.66421       91.87636
O         59.20949       61.97980       91.97786
C         61.92245       60.99660       91.11369
O         62.03508       61.61766       89.86231
H         63.35560       63.08019       91.60067
H         61.49651       61.48741       93.15733
H         61.13144       60.21434       91.07626
H         62.89175       60.52123       91.38856
H         62.31864       60.90888       89.22880
N         60.12982       63.97106       91.48991
C         58.89247       64.69669       91.24741
C         58.02027       64.69872       92.49395
O         56.81699       64.49867       92.39798
C         58.17483       64.15405       90.00359
H         60.99304       64.51523       91.37107
H         59.17286       65.75325       91.03536
H         57.28448       64.77469       89.77100
H         58.86150       64.18460       89.13051
H         57.84657       63.10501       90.15657
N         58.59547       64.86583       93.71847
C         57.86842       64.81755       94.97723
C         58.20640       66.02173       95.82155
O         59.37401       66.37089       95.93573
C         58.24224       63.55419       95.74808
H         59.61867       64.96786       93.77127
H         56.76957       64.76210       94.81092
H         57.66713       63.52226       96.70066
H         57.96924       62.65807       95.15184
H         59.32721       63.52661       95.97966
N         57.21912       66.66799       96.49750
C         57.42370       67.81651       97.36744
C         57.92944       68.98242       96.53475
O         58.93863       69.59184       96.86294
C         58.34280       67.43480       98.56037
C         58.25721       68.42048       99.73357
C         59.18327       68.00365      100.84363
O         60.05309       68.76496      101.23573
O         59.05648       66.78995      101.41534
H         56.25255       66.31941       96.40575
H         56.42316       68.08549       97.77380
H         59.39662       67.33915       98.21741
H         58.02077       66.44320       98.94808
H         57.21671       68.42507      100.12477
H         58.51421       69.44847       99.40375
N         57.27946       69.30459       95.38209
C         57.73700       70.35421       94.50026
H         58.78222       70.15214       94.18085
H         57.09547       70.38876       93.59360
H         57.68494       71.33401       95.01765
H         56.45141       68.75902       95.09732
Ca        65.17042       62.54922       98.33469
O         65.87062       65.78798       97.63112
H         65.42673       65.82679       96.74775
H         65.94996       66.73453       97.91027
O         63.10923       63.03090      100.55514
H         62.59741       62.22774      100.28433
H         63.51643       62.78441      101.42309
O         65.92996       60.98416      100.67163
H         66.64885       61.47469      101.14365
H         65.30904       60.69665      101.38635
O         66.26610       64.67559      100.45798
H         66.78570       64.54987      101.29114
H         65.60160       65.37510      100.68058
O         62.74543       64.33371       97.65010
H         61.86200       63.88661       97.64094
H         62.83733       64.72225       96.74482

Ca 1.0



