%chk=apoCaM-CA-Ng.loop4.water5.frame824.chk
%nprocshared=20
%mem=10GB
%nosave
#b3lyp/svp scf=(tight,noincore,xqc) Test 
#IOP(5/87=12) Density=Current Pop=(MK,readradii) iop(6/33=2) iop(6/42=6)

apoCaM-CA-Ng.loop4.water5.frame824 

   -3  1 
C         72.44986       88.11691       61.69636
C         73.67554       88.48933       60.91889
O         74.22134       89.55265       61.15345
H         71.59626       87.98123       60.99961
H         72.62855       87.17367       62.25146
H         72.18795       88.91786       62.42203
N         74.15231       87.66400       59.94500
C         75.30994       87.97093       59.10523
C         76.63171       87.95878       59.88102
O         77.62396       88.44276       59.35352
C         75.10998       89.28570       58.30668
C         73.82574       89.28947       57.51598
O         73.85493       89.35990       56.29810
O         72.63561       89.24753       58.14615
H         73.64721       86.78368       59.76065
H         75.40453       87.16419       58.34426
H         75.96373       89.40013       57.60227
H         75.11533       90.17025       58.97467
N         76.74772       87.31967       61.08507
C         78.01247       87.18318       61.81787
C         79.09906       86.55624       60.93748
O         78.84288       85.50645       60.36654
C         77.83870       86.34838       63.13879
C         77.20370       84.94189       62.92693
C         77.05744       87.17500       64.17686
C         77.30069       84.04125       64.15997
H         75.90693       86.88022       61.47868
H         78.34348       88.19924       62.10444
H         78.85277       86.18163       63.55902
H         77.73647       84.39603       62.12735
H         76.13776       85.02768       62.63185
H         77.01982       86.66160       65.15778
H         77.56911       88.14682       64.34898
H         76.02167       87.37533       63.83373
H         76.85860       83.04991       63.92420
H         78.36649       83.89033       64.43634
H         76.75080       84.45953       65.02498
N         80.33457       87.11529       60.72880
C         80.85509       88.34268       61.33652
C         82.20043       88.68530       60.70544
O         83.12870       87.89575       60.82092
C         81.05267       88.17743       62.86673
C         81.54236       89.43537       63.52149
O         82.71969       89.44036       64.17530
O         80.86040       90.44760       63.49012
H         80.95289       86.61604       60.06853
H         80.14351       89.17214       61.13225
H         81.77227       87.35178       63.06075
H         80.11411       87.92580       63.37657
N         82.37238       89.85557       60.02846
C         83.63150       90.25075       59.41034
C         84.19539       91.52953       60.00029
O         85.21595       91.98861       59.50807
H         81.57373       90.50316       59.94117
H         83.44629       90.40940       58.32630
H         84.40489       89.46023       59.51050
N         83.58760       92.16641       61.04157
C         84.03779       93.43023       61.60984
C         84.39228       93.29491       63.08581
O         85.42124       93.82899       63.47878
C         82.99235       94.53340       61.32752
C         81.56152       94.17571       61.65280
O         80.73315       94.13819       60.75689
O         81.17196       93.90676       62.90957
H         82.73146       91.76253       61.44096
H         84.96412       93.79407       61.10790
H         83.03340       94.73738       60.23351
H         83.28599       95.47196       61.84671
N         83.63069       92.57710       63.96218
C         83.96011       92.47179       65.37633
C         83.62913       93.73664       66.14614
O         83.94798       93.80110       67.32345
H         82.81123       92.06246       63.62311
H         85.03360       92.20136       65.48383
H         83.36183       91.65708       65.83854
N         82.93200       94.75514       65.56359
C         82.51398       95.98378       66.22188
C         81.57475       95.72989       67.39031
O         81.55607       96.51965       68.32536
C         83.73638       96.87973       66.54341
C         84.53645       97.21494       65.26266
C         83.78130       98.07368       64.26652
N         84.30130       98.29750       63.03894
O         82.70314       98.57214       64.55645
H         82.64474       94.67054       64.58559
H         81.87781       96.52917       65.49638
H         84.40231       96.34323       67.25272
H         83.41817       97.82730       67.02910
H         84.82880       96.26340       64.76984
H         85.47269       97.74825       65.53185
H         85.20082       97.87819       62.76341
H         83.78996       98.87430       62.35401
N         80.71076       94.67184       67.36480
C         79.68844       94.42607       68.38061
C         78.29130       94.23597       67.77041
O         77.35924       94.02448       68.53023
C         80.06298       93.17260       69.22843
C         80.13113       91.87860       68.39518
C         81.39017       93.38522       69.96967
H         80.79731       93.99336       66.59389
H         79.62541       95.29045       69.07830
H         79.27721       93.03397       70.00407
H         79.16001       91.67978       67.89633
H         80.92703       91.93308       67.62344
H         80.35112       91.01346       69.05634
H         81.60846       92.51385       70.62317
H         82.22988       93.50459       69.25600
H         81.33246       94.29150       70.60891
N         78.08535       94.21281       66.41727
C         76.83868       93.77258       65.79517
C         76.33605       94.79679       64.78284
O         77.14742       95.46028       64.15645
C         77.15897       92.41608       65.13983
C         76.00263       91.78730       64.42110
N         76.13289       91.41799       63.12826
O         74.95286       91.58063       65.01130
H         78.86762       94.39002       65.77586
H         76.04299       93.59300       66.55083
H         77.47371       91.71584       65.94431
H         78.01576       92.53210       64.44017
H         77.01868       91.55361       62.61878
H         75.34822       90.97524       62.64213
N         74.98949       94.98728       64.59205
C         74.46479       95.99590       63.65854
C         72.94385       96.18466       63.81495
O         72.30522       95.41866       64.51998
C         74.79121       95.58111       62.19671
C         74.82096       96.72736       61.21073
C         73.77867       96.93442       60.29471
C         75.94036       97.57646       61.16936
C         73.84992       97.96627       59.35501
C         76.01904       98.60080       60.21998
C         74.97637       98.79891       59.30908
O         75.06940       99.78585       58.39496
H         74.34301       94.42260       65.15925
H         74.95923       96.95436       63.92691
H         74.07676       94.78734       61.88355
H         75.79077       95.10525       62.11746
H         72.90610       96.30999       60.31449
H         76.76501       97.42757       61.85540
H         73.03254       98.11215       58.65972
H         76.89603       99.23495       60.18640
H         74.37503       99.94836       57.74038
N         72.30240       97.21382       63.18171
C         70.86276       97.46132       63.26649
C         70.25578       97.50320       61.85409
O         69.89698       98.58040       61.39896
C         70.60704       98.77573       64.03639
C         71.03660       98.66190       65.50836
C         70.70427       99.91398       66.26644
O         71.20864      100.97912       65.94907
O         69.85054       99.86523       67.30746
H         72.86124       97.88479       62.63868
H         70.33959       96.68694       63.85739
H         69.51268       98.98273       64.02325
H         71.13425       99.62115       63.54231
H         72.12812       98.47153       65.58153
H         70.49845       97.80879       65.97896
N         70.09122       96.38546       61.07701
C         70.38158       95.03175       61.53737
C         69.43716       94.63884       62.66173
O         68.44224       95.31704       62.88976
C         70.27631       93.98419       60.40172
C         71.28122       94.23882       59.26881
C         71.32544       93.08788       58.30818
O         70.22981       92.70756       57.62842
O         72.36718       92.47000       58.15346
H         69.71577       96.51419       60.12400
H         71.42319       95.01367       61.91260
H         69.24219       93.95550       59.98981
H         70.50492       92.98616       60.83555
H         72.29395       94.33138       59.70748
H         71.02928       95.17416       58.72425
N         69.71709       93.56104       63.44060
C         68.87923       93.18930       64.55907
H         67.85946       92.93301       64.20284
H         69.31309       92.31100       65.08103
H         68.81794       94.03337       65.28050
H         70.56875       93.00924       63.25812
Ca        70.42917       90.83744       56.37694
O         69.45839       90.27522       59.22222
H         69.81898       89.53313       59.76878
H         68.54046       89.98936       58.98540
O         69.61290       87.90704       56.53023
H         68.91099       88.01479       57.21992
H         70.30504       87.34688       56.96294
O         71.21182       89.05675       54.00359
H         70.24089       88.87333       53.93827
H         71.46401       89.38009       53.10264
O         72.45375       92.29259       54.66717
H         73.35610       91.88588       54.69146
H         72.58616       93.16993       54.22816
O         68.87764       91.86042       54.12729
H         68.16072       91.80643       54.80850
H         69.32414       92.72609       54.30614

Ca 1.0



