%chk=apoCaM-CA-Ng.loop3.water3.frame769.chk
%nprocshared=20
%mem=10GB
%nosave
#b3lyp/svp scf=(tight,noincore,xqc) Test 
#IOP(5/87=12) Density=Current Pop=(MK,readradii) iop(6/33=2) iop(6/42=6)

apoCaM-CA-Ng.loop3.water3.frame769 

   0  1 
C         94.92480      -16.00662       27.75301
C         95.53709      -16.78786       28.87097
O         96.66211      -16.49989       29.24930
H         94.01719      -15.48957       28.13347
H         95.63470      -15.23780       27.37998
H         94.64366      -16.68577       26.92429
N         94.83071      -17.78728       29.46695
C         95.27923      -18.46964       30.67270
C         95.49091      -19.97456       30.39812
O         94.88777      -20.47351       29.45877
C         94.17524      -18.19192       31.72545
C         94.64353      -18.32595       33.12033
O         94.43229      -17.34979       34.02305
O         95.22799      -19.32474       33.44656
H         93.89613      -18.02119       29.09545
H         96.23736      -18.02568       31.00937
H         93.31289      -18.86865       31.53992
H         93.80707      -17.14503       31.64222
N         96.32078      -20.76081       31.16609
C         96.48494      -22.21447       30.96250
C         95.92569      -23.05311       32.12107
O         95.79001      -24.25690       31.94653
C         97.96280      -22.62209       30.76040
C         98.58520      -22.22358       29.41744
C         99.98324      -22.86686       29.30902
C        100.59356      -22.73245       27.91022
N        101.86934      -23.44893       27.83524
H         96.84011      -20.32056       31.93630
H         95.90194      -22.53603       30.07292
H         98.00166      -23.73379       30.78838
H         98.58705      -22.24776       31.59629
H         98.64529      -21.11903       29.30665
H         97.94248      -22.63404       28.60867
H         99.89253      -23.95613       29.51751
H        100.66370      -22.42177       30.06884
H        100.74732      -21.66024       27.66165
H         99.89390      -23.17401       27.16560
H        102.55558      -23.04069       28.51045
H        101.72716      -24.46298       28.05394
H        102.25431      -23.37100       26.86654
N         95.56731      -22.50374       33.30955
C         94.91167      -23.20775       34.40685
C         93.50113      -22.65849       34.52524
O         92.55495      -23.41915       34.37571
C         95.77951      -23.16567       35.70224
C         96.58480      -21.90108       35.97719
O         96.04473      -20.73793       36.39551
O         97.79759      -21.95606       35.86251
H         95.73536      -21.51175       33.44606
H         94.77812      -24.28883       34.16988
H         96.54728      -23.95415       35.53313
H         95.19363      -23.48887       36.58896
N         93.29158      -21.32758       34.67038
C         91.99462      -20.68506       34.57996
C         91.72431      -19.78910       35.75684
O         90.69408      -19.12814       35.73787
H         94.10265      -20.72283       34.78171
H         91.16896      -21.42190       34.47365
H         91.99721      -20.04598       33.67026
N         92.57457      -19.71482       36.82350
C         92.30616      -18.88602       37.98566
C         93.46749      -17.96981       38.32001
O         94.55983      -18.11466       37.78608
C         92.02506      -19.81422       39.17886
C         90.79301      -20.64518       38.92102
N         90.87192      -21.99089       38.80240
O         89.71003      -20.09084       38.80525
H         93.41420      -20.31018       36.86056
H         91.41994      -18.23815       37.80555
H         91.86824      -19.23270       40.11119
H         92.91231      -20.47068       39.33049
H         91.77605      -22.47901       38.87849
H         90.02403      -22.54707       38.61703
N         93.26275      -16.98351       39.23418
C         94.27907      -16.09602       39.76400
C         95.03092      -15.32181       38.71273
O         94.42311      -14.72493       37.83529
H         92.30922      -16.86204       39.60919
H         94.98858      -16.68208       40.38648
H         93.77845      -15.36344       40.43220
N         96.38549      -15.22590       38.81454
C         97.21401      -14.43772       37.91083
C         97.34068      -15.11625       36.56496
O         96.75105      -16.16320       36.35163
C         98.57526      -14.14290       38.59165
C         98.32386      -13.28764       39.81737
C         97.82661      -11.97852       39.66800
C         98.53962      -13.79155       41.11000
C         97.53076      -11.19870       40.78737
C         98.23801      -13.00882       42.23111
C         97.72743      -11.71476       42.07458
O         97.42436      -10.98030       43.16406
H         96.84135      -15.67620       39.62341
H         96.72432      -13.45744       37.72269
H         99.27038      -13.58699       37.92805
H         99.06200      -15.10755       38.85609
H         97.65755      -11.56221       38.68249
H         98.91624      -14.79639       41.25159
H         97.13931      -10.19790       40.65148
H         98.38947      -13.41315       43.22368
H         97.05083      -10.08959       43.09568
N         98.05623      -14.51506       35.57910
C         98.09975      -14.94845       34.19151
C         98.70810      -16.39051       34.05968
O         97.70558      -17.34994       33.84258
C         96.69069      -14.76273       33.52296
C         96.68630      -14.97337       31.98744
C         96.05038      -13.40361       33.87264
C         97.44761      -13.90968       31.18275
H         98.55422      -13.63908       35.79942
H         98.79459      -14.23275       33.69825
H         96.01713      -15.52272       33.95692
H         95.63218      -14.96788       31.63253
H         97.09652      -15.97272       31.75318
H         95.90182      -13.30459       34.96780
H         96.68159      -12.55681       33.53641
H         95.04574      -13.32430       33.40426
H         96.99830      -12.90604       31.32358
H         98.51824      -13.86650       31.45994
H         97.38270      -14.14576       30.10114
N         99.67888      -16.41330       32.94686
C        100.24366      -17.72905       32.58833
C        101.66887      -17.58766       32.07851
O        102.29598      -18.60295       31.80580
C         99.39944      -18.42095       31.49009
O         99.40168      -17.65115       30.31594
H         99.33914      -15.91305       32.09648
H        100.28880      -18.36028       33.49917
H         98.35997      -18.55427       31.83819
H         99.82952      -19.42464       31.27204
H         98.92824      -18.18619       29.62724
N        102.24166      -16.36374       31.89568
C        103.58430      -16.18758       31.35762
C        104.64425      -16.73611       32.30648
O        104.31812      -16.96341       33.46396
C        103.81793      -14.68697       31.16006
H        101.69424      -15.51687       32.10577
H        103.62521      -16.69743       30.37652
H        103.07335      -14.27518       30.44595
H        103.72112      -14.14996       32.12871
H        104.81591      -14.48478       30.77430
N        105.95340      -16.93130       31.95462
C        106.51446      -16.87376       30.60040
C        108.03773      -16.82266       30.68362
O        108.59888      -17.70127       31.32532
C        106.11532      -18.12925       29.81039
H        106.59059      -17.20474       32.72030
H        106.13994      -16.00217       30.05248
H        106.48918      -19.04561       30.31579
H        105.01929      -18.22588       29.70506
H        106.55118      -18.08402       28.78883
N        108.81774      -15.87414       30.07913
C        108.36913      -14.80396       29.18864
C        107.46362      -13.81520       29.88873
O        106.39587      -13.53184       29.36484
C        109.59306      -14.05509       28.61110
C        109.19427      -13.00724       27.55774
C        110.40511      -12.30374       27.01930
O        110.67568      -12.36641       25.83080
O        111.19112      -11.58583       27.84459
H        109.83622      -15.96298       30.22844
H        107.83366      -15.26201       28.32595
H        110.26465      -14.79533       28.12195
H        110.15667      -13.56689       29.43685
H        108.52184      -12.24275       28.00103
H        108.65282      -13.51346       26.72768
N        107.83592      -13.22299       31.05524
C        106.98440      -12.27250       31.73722
H        106.02111      -12.75193       32.01092
H        107.47736      -11.92070       32.66752
H        106.78793      -11.39800       31.08138
H        108.74501      -13.46085       31.47908
Ca        96.73843      -18.76805       35.42821
O         99.81469      -18.51006       36.37186
H        100.69767      -18.74488       35.99055
H         99.84688      -17.52714       36.48719
O         97.69641      -19.12794       38.58825
H         97.40868      -18.36419       39.14875
H         97.19413      -19.90274       38.94593
O         98.95954      -20.50930       33.81675
H         98.35329      -21.25569       33.59064
H         99.82587      -20.76798       33.41507

Ca 1.0



