%chk=apoCaM-CA-Ng.loop4.water3.frame193.chk
%nprocshared=20
%mem=10GB
%nosave
#b3lyp/svp scf=(tight,noincore,xqc) Test 
#IOP(5/87=12) Density=Current Pop=(MK,readradii) iop(6/33=2) iop(6/42=6)

apoCaM-CA-Ng.loop4.water3.frame193 

   -3  1 
C         73.88956       38.84687       17.10130
C         72.51387       38.51733       17.59330
O         72.10176       37.38791       17.41785
H         74.62213       38.17437       17.59812
H         73.93932       38.68397       16.00451
H         74.16307       39.89760       17.32605
N         71.75772       39.43939       18.25210
C         70.44326       39.16657       18.82621
C         70.49505       38.05361       19.85595
O         69.78393       37.06684       19.75218
C         69.29261       39.14185       17.78485
C         69.35664       38.34186       16.49899
O         69.26987       36.99665       16.43197
O         69.29680       38.95958       15.44684
H         72.15943       40.37500       18.41552
H         70.16546       40.05144       19.44592
H         69.20231       40.20298       17.45464
H         68.33956       38.90734       18.30732
N         71.29725       38.24559       20.94511
C         71.39979       37.41182       22.13938
C         70.07262       37.41760       22.89576
O         69.93032       38.21490       23.81255
C         71.99204       35.99817       21.86602
C         72.23445       35.20360       23.17815
C         73.28034       36.07800       21.02761
C         73.27926       35.80323       24.13026
H         71.86369       39.10908       20.96038
H         72.12929       37.94608       22.78731
H         71.27278       35.41393       21.25576
H         72.56257       34.18118       22.90379
H         71.28262       35.10651       23.73846
H         73.67720       35.05728       20.83913
H         73.07143       36.54135       20.04094
H         74.05947       36.68460       21.53216
H         73.38621       35.14418       25.01732
H         74.27323       35.87696       23.64483
H         72.97556       36.80489       24.49373
N         69.05695       36.56898       22.56637
C         67.71490       36.64433       23.13120
C         67.44427       35.60724       24.22733
O         66.96948       36.02904       25.27279
C         66.67995       36.57190       21.98383
C         65.26403       36.66609       22.48257
O         64.47903       35.75457       22.27299
O         64.85347       37.75521       23.15943
H         69.21533       35.87322       21.82851
H         67.56513       37.64301       23.60341
H         66.79342       35.63101       21.41124
H         66.86221       37.40907       21.27588
N         67.64002       34.26013       24.11691
C         68.35159       33.61536       23.03257
C         68.33917       32.10269       23.16728
O         68.62361       31.62697       24.25764
H         67.31645       33.67256       24.90195
H         69.40797       33.94265       23.08345
H         67.94754       33.93498       22.07670
N         68.11965       31.24265       22.12166
C         67.90531       31.60506       20.72136
C         69.05837       32.49103       20.23891
O         68.81844       33.61542       19.82139
C         66.46924       32.15456       20.53626
C         66.11440       32.39782       19.09899
O         66.19452       31.49664       18.27939
O         65.65048       33.60178       18.72086
H         68.19162       30.23276       22.32335
H         67.92655       30.67308       20.11519
H         66.28350       33.07875       21.11275
H         65.76529       31.38678       20.92295
N         70.36402       32.09021       20.33121
C         70.79538       30.75954       20.72989
C         71.20448       30.71426       22.17567
O         71.20955       31.73949       22.84315
H         71.10317       32.77570       20.13134
H         71.61588       30.41622       20.06369
H         69.97462       30.02948       20.60972
N         71.52023       29.51607       22.74110
C         71.76578       29.35609       24.16898
C         73.23449       29.50198       24.53123
O         73.52808       29.54874       25.71696
C         70.99936       28.13313       24.74639
C         71.19462       26.74400       24.10004
C         72.57536       26.16917       24.24388
N         72.78397       25.02166       24.93071
O         73.51515       26.72337       23.70758
H         71.55831       28.68687       22.13129
H         71.31460       30.22447       24.70108
H         69.91685       28.36038       24.61991
H         71.19056       28.06164       25.83896
H         70.91998       26.76647       23.02550
H         70.47167       26.05758       24.59242
H         72.00473       24.52246       25.38285
H         73.73192       24.62470       25.00646
N         74.19056       29.70788       23.57621
C         75.55016       30.15446       23.88691
C         76.62319       29.18283       23.44161
O         77.78839       29.48948       23.66698
C         75.80577       31.55283       23.24752
C         74.87202       32.60676       23.84757
C         75.67500       31.55159       21.71139
H         73.93112       29.63007       22.58473
H         75.68255       30.26204       24.98594
H         76.84470       31.86542       23.49524
H         75.10281       33.60176       23.41336
H         73.81196       32.35736       23.63862
H         75.01525       32.66657       24.94711
H         75.93780       32.55343       21.31160
H         76.36265       30.80928       21.25464
H         74.63888       31.32623       21.38573
N         76.33814       28.00199       22.82744
C         77.37158       27.07322       22.39382
C         77.31203       26.81157       20.89484
O         78.23917       26.19720       20.38978
C         77.23864       25.74707       23.16925
C         77.21423       25.96074       24.66597
N         78.25462       26.53857       25.31007
O         76.23378       25.60878       25.30435
H         75.35976       27.73735       22.68028
H         78.37665       27.50061       22.60208
H         78.08191       25.07092       22.91048
H         76.29019       25.24829       22.86694
H         79.09250       26.84535       24.79670
H         78.21819       26.68420       26.33040
N         76.23924       27.18827       20.12754
C         76.13046       26.85920       18.71133
C         75.48973       27.99486       17.91609
O         74.77379       28.81016       18.47826
C         75.19178       25.64568       18.55650
C         75.63879       24.39700       19.26992
C         76.77730       23.69704       18.84034
C         74.88615       23.89384       20.34470
C         77.14655       22.50234       19.46735
C         75.26278       22.70675       20.97619
C         76.38705       22.00190       20.53601
O         76.72102       20.84388       21.14002
H         75.41712       27.61571       20.56811
H         77.12967       26.61692       18.28752
H         75.08641       25.37755       17.48524
H         74.19026       25.94778       18.93917
H         77.36296       24.06280       18.00610
H         74.00343       24.41657       20.69227
H         78.01573       21.96139       19.11534
H         74.67119       22.32862       21.80047
H         77.47586       20.31167       20.85133
N         75.59571       27.98480       16.55508
C         74.80829       28.78502       15.61320
C         74.97254       30.30116       15.68431
O         74.36376       30.95929       14.85088
C         73.30055       28.44204       15.71641
C         73.01965       26.93518       15.66184
C         71.54627       26.65790       15.62090
O         70.74547       27.09444       16.61208
O         71.06870       26.02340       14.69411
H         76.21769       27.27743       16.13449
H         75.13805       28.48127       14.59310
H         72.77757       28.92744       14.86226
H         72.87672       28.85082       16.65966
H         73.42197       26.45741       16.56989
H         73.51064       26.48742       14.77058
N         75.73483       30.94135       16.61746
C         75.80998       32.39943       16.70764
C         77.22387       32.90959       16.47006
O         77.40450       34.12048       16.47572
C         75.32845       32.85360       18.10414
C         73.88411       32.45952       18.46865
C         72.84460       33.22434       17.70003
O         72.72709       33.09009       16.49302
O         72.03307       34.07095       18.36504
H         76.26862       30.39681       17.30672
H         75.17596       32.88225       15.93438
H         75.42057       33.95841       18.20553
H         76.00446       32.38781       18.85211
H         73.74142       32.71242       19.54095
H         73.72324       31.36705       18.35649
N         78.27894       32.07261       16.25310
C         79.61752       32.57656       16.03857
H         80.32345       31.73005       15.90307
H         79.64181       33.21229       15.12829
H         79.94305       33.17301       16.91767
H         78.15202       31.05149       16.24368
Ca        70.50559       35.33715       17.32112
O         67.37601       35.31819       17.47636
H         66.76341       35.99347       17.86269
H         66.87383       34.92765       16.71744
O         69.30731       32.67485       16.26049
H         69.85298       31.86913       16.44319
H         68.47012       32.52865       16.76830
O         71.41919       35.36248       14.35680
H         72.27756       35.20681       14.82478
H         71.24522       36.32959       14.47796

Ca 1.0



