%chk=apoCaM-CA-Ng.loop2.water3.frame320.chk
%nprocshared=20
%mem=10GB
%nosave
#b3lyp/svp scf=(tight,noincore,xqc) Test 
#IOP(5/87=12) Density=Current Pop=(MK,readradii) iop(6/33=2) iop(6/42=6)

apoCaM-CA-Ng.loop2.water3.frame320 

   -2  1 
C         34.82087      107.56923       37.16840
C         34.05511      108.85765       37.12603
O         33.16238      109.04678       37.93726
H         35.89702      107.77378       37.34358
H         34.44053      106.91144       37.97942
H         34.70042      107.03866       36.19995
N         34.36119      109.80371       36.19618
C         33.60936      111.04607       36.04616
C         32.20931      110.72356       35.55018
O         32.08842      110.11061       34.49712
C         34.33388      111.97509       35.04470
C         33.68534      113.32637       34.86979
O         32.56907      113.66528       35.54445
O         34.18836      114.13557       34.10741
H         35.15975      109.62266       35.56729
H         33.58053      111.57327       37.02622
H         34.39719      111.47669       34.05254
H         35.36916      112.14738       35.41267
N         31.10134      111.10874       36.24993
C         29.75039      110.79595       35.78753
C         29.50045      109.30002       35.76639
O         28.62813      108.85881       35.03174
C         28.69403      111.47109       36.66401
H         31.22487      111.64921       37.11993
H         29.64467      111.19461       34.75353
H         28.84364      112.57123       36.65450
H         27.67553      111.25211       36.27668
H         28.76704      111.10510       37.71093
N         30.22274      108.46339       36.56557
C         30.11100      107.01644       36.57028
C         28.70750      106.60238       36.97150
O         28.03353      105.93116       36.20091
C         30.55649      106.45520       35.19483
C         30.75162      104.97408       35.26300
O         30.08230      104.20855       34.58832
O         31.69886      104.50493       36.08590
H         30.90085      108.86855       37.21954
H         30.81675      106.62960       37.34156
H         31.53912      106.89594       34.91735
H         29.82249      106.71985       34.40553
N         28.19518      106.99359       38.17551
C         26.83034      106.69222       38.57614
C         26.72989      105.79758       39.78757
O         25.60838      105.40983       40.08529
H         28.78173      107.55094       38.81540
H         26.29316      106.16441       37.75932
H         26.28212      107.63944       38.76598
N         27.81106      105.40795       40.53316
C         27.68827      104.43521       41.61540
C         27.84184      105.12520       42.96730
O         27.11659      106.08321       43.19924
C         28.63246      103.24312       41.31042
C         28.36573      102.01815       42.15706
N         29.34781      101.44484       42.89159
O         27.25078      101.51920       42.15330
H         28.74840      105.78168       40.32397
H         26.65522      104.02719       41.62536
H         29.69273      103.57376       41.38252
H         28.45625      102.93041       40.25821
H         30.29868      101.83073       42.89760
H         29.16015      100.60269       43.45446
N         28.67887      104.66866       43.93962
C         28.69944      105.24448       45.27503
C         29.49110      104.35524       46.19683
O         29.13397      103.19111       46.32258
H         29.26702      103.84828       43.76023
H         27.66304      105.28283       45.67764
H         29.10320      106.27927       45.23660
N         30.58112      104.81742       46.86913
C         31.40734      103.92762       47.68059
C         32.41296      103.16822       46.81914
O         32.98256      102.20169       47.30690
C         32.08414      104.67088       48.86384
C         33.09826      105.74900       48.44350
O         31.11273      105.22298       49.71773
H         30.86089      105.79946       46.73816
H         30.73831      103.16696       48.14449
H         32.64712      103.91559       49.45522
H         30.69936      105.99620       49.25169
H         33.89738      105.31226       47.82353
H         32.62101      106.56821       47.86987
H         33.56984      106.18966       49.34659
N         32.71296      103.57235       45.54838
C         33.67811      102.90644       44.67736
C         33.04580      102.58443       43.33307
O         32.21002      103.33341       42.84569
C         34.95491      103.80138       44.55039
C         35.81542      103.73907       45.84304
C         35.83453      103.50003       43.32387
C         36.50327      102.38843       46.10654
H         32.28274      104.43538       45.18416
H         33.97301      101.92682       45.09859
H         34.61158      104.85200       44.41178
H         35.18921      103.97622       46.71878
H         36.61138      104.51168       45.77957
H         36.72072      104.16941       43.31593
H         36.17474      102.44595       43.30306
H         35.27090      103.71433       42.39659
H         37.09062      102.45312       47.04532
H         35.77768      101.56074       46.22863
H         37.20905      102.13183       45.29040
N         33.52213      101.51535       42.63120
C         33.10409      101.13426       41.28775
C         32.92421       99.60513       41.17148
O         32.74981       99.09869       40.07331
C         34.21226      101.64605       40.34956
C         33.85567      101.67571       38.89712
O         32.65101      101.27141       38.45875
O         34.63191      102.19541       38.11090
H         34.32063      101.00158       43.03533
H         32.16018      101.65702       41.01139
H         35.15698      101.09006       40.52130
H         34.38726      102.71332       40.60139
N         32.97553       98.80871       42.27934
C         32.94594       97.34538       42.27805
C         34.21533       96.78865       41.61806
O         35.28270       97.27760       41.96021
C         32.94317       96.88459       43.75828
C         32.87442       95.39171       43.93723
C         31.67557       94.69728       43.70610
C         34.01067       94.68383       44.36162
C         31.61796       93.31328       43.89865
C         33.95204       93.30069       44.54182
C         32.75606       92.61563       44.31391
H         33.04355       99.26205       43.19950
H         32.01422       96.99088       41.79131
H         32.09231       97.34020       44.31167
H         33.87353       97.27237       44.23090
H         30.78643       95.22851       43.38880
H         34.94455       95.20162       44.54275
H         30.69086       92.78165       43.72861
H         34.83440       92.76203       44.86123
H         32.71166       91.54482       44.46154
N         34.22148       95.71972       40.75029
C         35.45789       95.07063       40.31094
C         36.35074       95.89903       39.41075
O         37.46143       95.46666       39.13014
C         34.97466       93.83647       39.54172
C         33.67751       93.51759       40.25411
C         33.07314       94.91186       40.40139
H         36.00591       94.77037       41.23311
H         34.69410       94.13439       38.50350
H         35.71547       93.01037       39.48105
H         33.02677       92.78640       39.72989
H         33.92676       93.12392       41.26643
H         32.67710       95.26582       39.42400
H         32.26766       94.89014       41.15499
N         35.91004       97.05932       38.85718
C         36.71099       97.85858       37.94049
C         37.89795       98.44348       38.67392
O         39.02331       98.21983       38.25122
C         35.84974       98.97115       37.31167
C         34.74376       98.37477       36.41963
C         33.85653       99.43918       35.85116
O         34.31696      100.31450       35.13588
O         32.53666       99.41802       36.11625
H         34.95040       97.36991       39.06607
H         37.07650       97.22197       37.10149
H         36.49179       99.62561       36.68142
H         35.40145       99.58521       38.11855
H         34.10904       97.67434       37.00176
H         35.20617       97.80554       35.58415
N         37.71338       99.18729       39.80059
C         38.80003       99.77125       40.55999
H         39.79178       99.57881       40.09911
H         38.65166      100.86901       40.62598
H         38.80133       99.34527       41.58513
H         36.75670       99.33407       40.15326
Ca        32.04832      102.37265       36.62193
O         34.12013      103.79753       34.65587
H         34.33092      103.46950       33.74607
H         34.79818      104.49630       34.83518
O         31.47322      100.72840       33.45854
H         31.37375       99.76310       33.65543
H         30.77058      100.91633       32.78703
O         29.66919      100.68352       36.13678
H         29.31111       99.90034       35.64875
H         28.97540      100.90130       36.80847

Ca 1.0



