%chk=apoCaM-CA-Ng.loop3.water2.frame900.chk
%nprocshared=20
%mem=10GB
%nosave
#b3lyp/svp scf=(tight,noincore,xqc) Test 
#IOP(5/87=12) Density=Current Pop=(MK,readradii) iop(6/33=2) iop(6/42=6)

apoCaM-CA-Ng.loop3.water2.frame900 

   0  1 
C        -11.84374       -3.36604       33.68181
C        -12.82685       -4.43265       33.30761
O        -13.27235       -5.15558       34.18371
H        -10.89369       -3.51195       33.12905
H        -12.27137       -2.37300       33.42797
H        -11.63575       -3.38951       34.77370
N        -13.21683       -4.57894       32.01001
C        -14.24003       -5.52094       31.56792
C        -13.60026       -6.53652       30.64108
O        -13.08942       -6.14652       29.59930
C        -15.34613       -4.70415       30.87358
C        -16.60440       -5.43956       30.52693
O        -17.49621       -4.82911       29.95983
O        -16.81123       -6.72652       30.85696
H        -12.78409       -3.96730       31.29996
H        -14.67750       -6.04653       32.43994
H        -14.92882       -4.24580       29.95058
H        -15.65103       -3.87770       31.54735
N        -13.51129       -7.85246       30.99836
C        -12.72542       -8.80819       30.21969
C        -13.35121       -9.14998       28.87096
O        -12.66218       -9.73931       28.05056
C        -12.41300      -10.06259       31.07526
C        -11.37416      -10.99032       30.42079
C        -10.83544      -12.03979       31.40109
C         -9.72689      -12.87012       30.73527
N         -9.13135      -13.81513       31.67842
H        -13.90342       -8.14626       31.90695
H        -11.74635       -8.31617       30.02326
H        -13.33982      -10.62604       31.32431
H        -11.97160       -9.68952       32.02623
H        -10.51307      -10.36967       30.09037
H        -11.81364      -11.50124       29.53817
H        -11.65695      -12.70435       31.74734
H        -10.40320      -11.51677       32.28258
H         -8.92916      -12.18781       30.36394
H        -10.14483      -13.42421       29.86559
H         -9.85335      -14.48940       32.02003
H         -8.37067      -14.34477       31.19396
H         -8.71534      -13.29901       32.48787
N        -14.64123       -8.82939       28.56576
C        -15.25756       -9.14843       27.28157
C        -15.75253       -7.88639       26.58163
O        -15.42795       -7.71661       25.41399
C        -16.27043      -10.30886       27.43929
C        -17.36048      -10.14652       28.45464
O        -18.29333       -9.40295       28.24202
O        -17.37234      -10.91557       29.56016
H        -15.22885       -8.38163       29.28241
H        -14.50960       -9.58840       26.58397
H        -15.67321      -11.18698       27.76832
H        -16.71920      -10.56899       26.45539
N        -16.47821       -6.92917       27.22908
C        -16.93266       -5.69512       26.59057
C        -18.44194       -5.56735       26.59161
O        -18.94460       -4.59831       26.04083
H        -16.70230       -7.06231       28.22308
H        -16.59856       -5.64447       25.53182
H        -16.49320       -4.82397       27.12260
N        -19.22797       -6.51456       27.17425
C        -20.67470       -6.52753       27.15524
C        -21.20424       -6.45382       28.60815
O        -20.94580       -7.64547       29.30406
C        -21.14228       -7.82318       26.44910
C        -20.57137       -7.93587       25.05513
N        -19.71861       -8.94038       24.73519
O        -20.87458       -7.10773       24.20992
H        -18.78975       -7.29987       27.64033
H        -21.05626       -5.64583       26.59460
H        -22.25047       -7.86267       26.39788
H        -20.79989       -8.69946       27.04290
H        -19.43715       -9.64391       25.43433
H        -19.32550       -9.01186       23.78489
N        -22.63638       -6.14379       28.60019
C        -23.33295       -6.32273       29.88234
C        -22.66248       -5.65319       31.06969
O        -22.33936       -4.47625       31.00294
H        -22.74168       -5.14837       28.29530
H        -23.48448       -7.40771       30.07279
H        -24.34669       -5.88180       29.77169
N        -22.51724       -6.34996       32.23289
C        -22.01875       -5.77729       33.48452
C        -20.50040       -5.68028       33.51343
O        -19.85394       -5.99516       32.52647
C        -22.52816       -6.64092       34.67260
C        -24.02547       -6.54192       34.83964
C        -24.61928       -5.29641       35.11826
C        -24.83841       -7.68255       34.75289
C        -25.99902       -5.19312       35.29876
C        -26.22161       -7.57711       34.93875
C        -26.80611       -6.33460       35.21133
O        -28.13937       -6.24936       35.39189
H        -22.89070       -7.31206       32.25756
H        -22.41670       -4.74915       33.61633
H        -22.11145       -6.30085       35.63916
H        -22.19696       -7.69366       34.53003
H        -24.01547       -4.40171       35.20360
H        -24.40330       -8.65275       34.54936
H        -26.43698       -4.22583       35.51213
H        -26.83968       -8.46329       34.87527
H        -28.57800       -5.40863       35.58723
N        -19.87711       -5.25991       34.65891
C        -18.43974       -5.16151       34.89425
C        -17.74063       -6.50407       34.69550
O        -17.74770       -7.03825       33.59801
C        -17.78519       -4.01314       34.07675
C        -16.26463       -3.87341       34.37354
C        -18.50167       -2.67645       34.34404
C        -15.88014       -3.57444       35.82998
H        -20.46330       -4.99208       35.46149
H        -18.32067       -4.87029       35.95990
H        -17.88870       -4.23578       32.99279
H        -15.84665       -3.05997       33.74288
H        -15.76647       -4.81509       34.07968
H        -19.56698       -2.73546       34.03928
H        -18.46802       -2.41057       35.42155
H        -18.02597       -1.86039       33.75967
H        -16.19916       -4.38265       36.51409
H        -14.77500       -3.49983       35.90823
H        -16.31136       -2.61413       36.17522
N        -17.03944       -7.06369       35.72143
C        -16.22892       -8.26790       35.57509
C        -16.30892       -9.18056       36.79142
O        -15.55318      -10.14457       36.82454
C        -14.77319       -7.83460       35.35675
O        -14.31288       -7.09391       36.45411
H        -16.96104       -6.53691       36.60266
H        -16.52593       -8.84855       34.67446
H        -14.73497       -7.21532       34.43832
H        -14.13030       -8.73076       35.20414
H        -13.37457       -6.84930       36.24632
N        -17.16525       -8.95380       37.83234
C        -17.11942       -9.72537       39.06974
C        -18.36017      -10.59006       39.23301
O        -19.34362      -10.33822       38.54972
C        -16.98296       -8.73986       40.24000
H        -17.86340       -8.19780       37.77164
H        -16.23306      -10.38503       39.05902
H        -16.06189       -8.13171       40.11627
H        -17.85682       -8.05270       40.26282
H        -16.93308       -9.24363       41.22071
N        -18.42120      -11.64665       40.10266
C        -17.27952      -12.18869       40.83885
C        -17.74299      -13.00148       42.04569
O        -18.53594      -13.91310       41.85528
C        -16.45411      -13.10969       39.92710
H        -19.30872      -12.17223       40.14208
H        -16.61839      -11.37261       41.15285
H        -17.06400      -13.96832       39.57527
H        -16.07317      -12.57546       39.03517
H        -15.57593      -13.50046       40.48683
N        -17.27660      -12.80060       43.31690
C        -16.28471      -11.79562       43.68416
C        -16.92075      -10.42148       43.82810
O        -16.18463       -9.44680       43.90204
C        -15.55052      -12.15668       44.99882
C        -14.67531      -13.42293       44.90292
C        -15.46265      -14.69016       44.73490
O        -16.34473      -15.06683       45.68088
O        -15.29928      -15.39037       43.74845
H        -17.62554      -13.43353       44.05183
H        -15.49217      -11.76355       42.90639
H        -16.27182      -12.24268       45.84090
H        -14.85287      -11.32266       45.23622
H        -14.08883      -13.52018       45.84112
H        -13.95618      -13.30311       44.06240
N        -18.27222      -10.25955       43.92263
C        -18.87847       -8.95644       44.08587
H        -19.97876       -9.06273       44.19702
H        -18.47961       -8.46074       44.99712
H        -18.66707       -8.32753       43.19603
H        -18.89897      -11.07672       43.91147
Ca       -18.85294       -7.43162       30.20000
O        -18.94137       -9.68452       33.13745
H        -18.07467      -10.16269       33.11158
H        -19.08325       -9.47744       34.09549
O        -20.63463      -10.30152       30.49274
H        -21.16791      -10.30884       31.32683
H        -21.30766      -10.23263       29.76966

Ca 1.0



