%chk=apoCaM-CA-Ng.loop1.water3.frame320.chk
%nprocshared=20
%mem=10GB
%nosave
#b3lyp/svp scf=(tight,noincore,xqc) Test 
#IOP(5/87=12) Density=Current Pop=(MK,readradii) iop(6/33=2) iop(6/42=6)

apoCaM-CA-Ng.loop1.water3.frame320 

   0  1 
C         32.78160      107.79207       52.40180
C         32.90892      108.75363       51.25100
O         33.98829      109.28299       51.03072
H         31.75473      107.37100       52.47025
H         33.48627      106.94550       52.25849
H         33.01387      108.30546       53.35659
N         31.83828      109.00027       50.44914
C         31.89134      109.84014       49.25448
C         31.90840      111.34342       49.56993
O         31.83347      112.11605       48.63024
C         30.64580      109.56093       48.36359
C         30.51717      108.12347       47.91382
O         30.30365      107.13592       48.80379
O         30.55520      107.84980       46.72540
H         30.96053      108.50560       50.66541
H         32.78426      109.56556       48.64768
H         30.71545      110.18838       47.44975
H         29.71763      109.85106       48.90152
N         31.93013      111.85365       50.83491
C         31.60736      113.25762       51.10999
C         32.74180      114.02298       51.77425
O         33.23307      113.53020       52.78055
C         30.40122      113.27836       52.07686
C         29.12808      112.60815       51.53208
C         28.45931      113.42600       50.42213
C         27.13923      112.77539       49.98288
N         26.41164      113.62716       49.04261
H         32.05232      111.22579       51.64181
H         31.32205      113.77393       50.18846
H         30.15685      114.32229       52.37068
H         30.69553      112.73337       53.00162
H         28.40783      112.54113       52.37584
H         29.34558      111.57371       51.18687
H         29.13664      113.51004       49.55295
H         28.24581      114.44310       50.81792
H         26.49520      112.61126       50.87423
H         27.34980      111.78867       49.51251
H         26.96690      113.76923       48.17395
H         25.51023      113.16466       48.78597
H         26.20221      114.55281       49.48322
N         33.16589      115.27875       51.39577
C         32.76185      116.10193       50.24326
C         31.25527      116.24040       50.05461
O         30.75860      115.84644       49.01008
C         33.45812      115.62655       48.95243
C         34.95321      115.74581       49.01755
O         35.58819      116.21064       50.11255
O         35.61511      115.42552       48.04353
H         33.85715      115.72481       52.01978
H         33.14421      117.13567       50.39920
H         33.12804      116.26411       48.10196
H         33.18342      114.57245       48.73475
N         30.43470      116.81620       50.97086
C         30.89498      117.38707       52.22281
C         29.71256      117.90835       53.02457
O         28.71312      117.20511       53.07926
H         29.42925      116.85593       50.73710
H         31.61982      118.18356       51.97027
H         31.39600      116.60123       52.81884
N         29.68569      119.11517       53.66368
C         30.81758      120.02271       53.82993
C         30.64762      121.24479       52.95400
O         29.63696      121.36956       52.27403
C         31.04750      120.35781       55.32609
C         29.90934      121.07916       56.00282
O         28.82813      120.53534       56.15893
O         30.10105      122.31646       56.49760
H         28.78385      119.39870       54.07190
H         31.75558      119.54412       53.49994
H         31.95709      120.98930       55.41186
H         31.25200      119.41867       55.88536
N         31.65345      122.16012       52.85746
C         31.61924      123.26770       51.91928
C         31.74921      122.82402       50.46869
O         31.71903      123.68920       49.60635
H         32.49103      122.05972       53.45005
H         32.47974      123.94038       52.12477
H         30.68443      123.84991       52.07066
N         31.91769      121.51226       50.11809
C         32.08050      121.04797       48.74800
C         30.90590      120.16090       48.38371
O         30.62291      119.20905       49.09607
C         33.41284      120.27258       48.60139
C         34.61847      121.17104       48.89152
O         33.52604      119.78580       47.28872
H         31.94995      120.78345       50.84232
H         32.11576      121.90059       48.03444
H         33.40643      119.41985       49.32120
H         34.11828      118.98925       47.32046
H         34.64084      122.02471       48.17995
H         34.58066      121.56213       49.92896
H         35.55634      120.58951       48.77128
N         30.21759      120.39521       47.23204
C         29.13905      119.54156       46.74081
C         29.65312      118.59089       45.66157
O         28.84777      117.86201       45.10093
C         27.93930      120.40159       46.22900
C         28.31757      121.26648       44.99150
C         27.37104      121.25620       47.37613
C         27.12446      121.97178       44.34514
H         30.55514      121.14954       46.61841
H         28.76000      118.88735       47.55780
H         27.14040      119.69267       45.91489
H         28.75505      120.60931       44.20990
H         29.07128      122.03560       45.25757
H         26.45164      121.79016       47.06230
H         27.09268      120.60712       48.23326
H         28.11707      122.00340       47.72092
H         26.35867      121.22902       44.03662
H         26.66881      122.71312       45.03119
H         27.46934      122.51793       43.44126
N         30.97612      118.54583       45.32289
C         31.55309      117.69011       44.29219
C         31.82531      116.30082       44.86144
O         32.97708      115.95635       45.09852
C         32.85640      118.33991       43.74823
C         32.60786      119.76212       43.22149
O         33.35775      117.54265       42.70565
H         31.62932      119.17308       45.80514
H         30.86531      117.61770       43.42000
H         33.60414      118.39584       44.57515
H         34.29701      117.82407       42.55201
H         32.25735      120.43708       44.03025
H         33.55461      120.18575       42.82617
H         31.84935      119.75084       42.41139
N         30.79820      115.44531       45.11552
C         30.98070      114.13573       45.74042
C         31.88191      113.21588       44.91431
O         32.23413      113.56345       43.79711
C         29.59634      113.49720       46.05001
C         28.81391      113.09777       44.79511
O         28.80591      114.41454       46.75692
H         29.84637      115.75435       44.88871
H         31.48882      114.31390       46.71431
H         29.72812      112.57543       46.66113
H         29.24496      114.56705       47.62693
H         27.83490      112.66552       45.09660
H         28.61385      113.97612       44.14757
H         29.36444      112.33761       44.20876
N         32.32529      112.03415       45.43889
C         33.23396      111.12232       44.74776
C         34.59332      111.00022       45.45385
O         35.48378      110.39539       44.86995
C         32.59133      109.72240       44.65535
C         31.18611      109.69021       44.02207
C         31.10348      110.16285       42.56214
C         31.97236      109.31851       41.61781
N         31.75474      109.70097       40.22377
H         32.01160      111.76827       46.37232
H         33.43935      111.50459       43.72572
H         32.49120      109.32383       45.68826
H         33.26564      109.03208       44.10683
H         30.49599      110.30667       44.63592
H         30.81272      108.64413       44.06831
H         31.38886      111.23286       42.48250
H         30.04066      110.07110       42.24702
H         31.71825      108.24213       41.73992
H         33.04565      109.46027       41.86900
H         30.76115      109.51468       39.95442
H         31.97507      110.71387       40.08631
H         32.38114      109.12928       39.61212
N         34.83534      111.52057       46.69565
C         36.13339      111.45622       47.37877
C         36.63862      110.03515       47.53697
O         35.97076      109.22017       48.15874
C         36.01939      112.11543       48.77278
C         37.26883      112.07944       49.67964
C         38.54133      112.67945       49.12279
O         39.14848      112.11765       48.22813
O         39.08591      113.76534       49.70858
H         34.06776      111.99815       47.18794
H         36.86761      112.04104       46.78325
H         35.19951      111.61673       49.33832
H         35.71792      113.16035       48.63140
H         37.48779      111.03082       49.97521
H         36.99758      112.62468       50.61016
N         37.86372      109.70173       47.03772
C         38.49752      108.41620       47.23497
H         39.45037      108.56896       47.78763
H         37.86558      107.71751       47.82009
H         38.72847      107.96253       46.24974
H         38.40577      110.40733       46.51702
Ca        37.64480      115.36187       50.33087
O         38.03256      118.39553       51.61669
H         37.72397      118.11696       52.51539
H         37.72376      119.33210       51.52695
O         39.02053      116.10134       47.33078
H         38.51722      116.41387       46.53732
H         39.62210      115.39650       46.98209
O         37.51192      118.58912       48.43669
H         38.15523      119.29931       48.18684
H         36.88614      118.54002       47.67086

Ca 1.0



