%chk=apoCaM-CA-Ng.loop4.water5.frame1021.chk
%nprocshared=20
%mem=10GB
%nosave
#b3lyp/svp scf=(tight,noincore,xqc) Test 
#IOP(5/87=12) Density=Current Pop=(MK,readradii) iop(6/33=2) iop(6/42=6)

apoCaM-CA-Ng.loop4.water5.frame1021 

   -3  1 
C         35.19315       45.66584       34.63219
C         35.39129       44.36574       33.90533
O         36.08303       43.50895       34.43208
H         34.11247       45.81057       34.84462
H         35.73817       45.65668       35.60072
H         35.57662       46.50944       34.02300
N         34.79286       44.08872       32.71222
C         33.89266       44.99370       32.00219
C         32.44676       44.57181       32.19430
O         31.57078       45.24357       31.66640
C         34.24901       45.02302       30.49777
C         35.70927       45.30104       30.31419
O         36.51303       44.36197       29.77720
O         36.19542       46.33168       30.75268
H         34.93984       43.15030       32.31434
H         33.98244       46.02484       32.40209
H         33.64400       45.78945       29.96681
H         34.01486       44.03562       30.05041
N         32.11017       43.48779       32.95989
C         30.72755       43.08825       33.19590
C         30.02638       42.59559       31.93051
O         28.82809       42.35898       32.00840
C         30.61352       42.01423       34.32693
C         31.26923       40.66161       33.93324
C         31.17708       42.56461       35.65466
C         30.97315       39.53679       34.92629
H         32.85096       42.95736       33.43252
H         30.18122       43.98988       33.55488
H         29.52690       41.83271       34.48498
H         32.36850       40.76908       33.83172
H         30.86316       40.32872       32.95453
H         32.27210       42.73714       35.59725
H         30.68330       43.52578       35.91062
H         30.98307       41.86786       36.49383
H         29.87570       39.39287       35.02347
H         31.42055       38.59090       34.55472
H         31.40745       39.74689       35.92378
N         30.67826       42.41997       30.73868
C         29.98843       41.96015       29.53279
C         30.83319       42.17965       28.27433
O         32.02685       42.43567       28.36500
C         29.58400       40.47404       29.69735
C         28.73968       39.95137       28.57285
O         29.17931       38.92547       27.81958
O         27.64199       40.43756       28.35134
H         31.67718       42.65020       30.68017
H         29.08957       42.60665       29.41524
H         29.00296       40.32861       30.63056
H         30.50775       39.86420       29.78355
N         30.22909       42.20763       27.05255
C         30.92430       42.59431       25.83703
C         31.85857       41.54241       25.28592
O         31.93904       40.43677       25.80283
H         29.20856       42.07764       26.99466
H         31.47004       43.54555       26.01798
H         30.17127       42.78681       25.04172
N         32.57907       41.84916       24.17045
C         33.41407       40.90260       23.43460
C         32.51591       39.84516       22.80725
O         31.52100       40.22794       22.20633
C         34.18485       41.63463       22.31634
C         35.11220       42.67648       22.88332
O         36.09288       42.31871       23.73505
O         34.98191       43.84992       22.57332
H         32.49605       42.81125       23.80463
H         34.17279       40.46005       24.11256
H         33.46801       42.11214       21.61113
H         34.79751       40.90207       21.74747
N         32.75670       38.50479       22.87230
C         33.98074       37.91905       23.40263
C         33.94440       36.39421       23.40064
O         32.87499       35.83235       23.20927
H         32.04764       37.88888       22.44593
H         34.13799       38.24026       24.45318
H         34.81014       38.28900       22.77322
N         35.03606       35.61093       23.65715
C         36.42512       36.03813       23.78531
C         36.59668       37.09803       24.84595
O         36.88173       38.24776       24.53820
C         37.03498       36.38292       22.40664
C         38.57043       36.57665       22.39966
C         39.34237       35.36430       22.88425
N         40.06654       34.61234       22.02288
O         39.32744       35.06473       24.06906
H         34.87376       34.59313       23.72583
H         36.98568       35.14365       24.11757
H         36.56654       37.28899       21.97851
H         36.81274       35.53827       21.71752
H         38.87362       37.46083       22.99913
H         38.85199       36.78422       21.34482
H         40.09636       34.83487       21.01791
H         40.58620       33.78834       22.36164
N         36.48089       36.73817       26.14775
C         36.63120       37.66186       27.26305
C         35.53733       37.41086       28.28753
O         34.75504       36.48181       28.13285
C         38.05729       37.54244       27.88007
C         39.10736       38.16810       26.95032
C         38.44355       36.08958       28.19320
H         36.33313       35.73817       26.35841
H         36.49250       38.71233       26.92129
H         38.09270       38.12777       28.82317
H         39.15437       37.64048       25.97526
H         38.86145       39.23646       26.76801
H         40.11152       38.12898       27.42356
H         38.50204       35.48337       27.26256
H         39.43959       36.05023       28.68297
H         37.69467       35.63778       28.86907
N         35.41808       38.23449       29.36437
C         34.42392       38.04632       30.41166
C         35.14792       37.90501       31.73762
O         34.83920       38.60258       32.69481
C         33.37615       39.18561       30.39267
C         33.95947       40.56469       30.58104
N         34.71938       41.15101       29.62483
O         33.71752       41.17008       31.61056
H         36.08417       39.01387       29.46206
H         33.86604       37.09879       30.24984
H         32.64868       38.98209       31.21006
H         32.81409       39.17167       29.43483
H         34.89443       40.69250       28.72017
H         35.12119       42.08506       29.77615
N         36.19316       37.03705       31.82112
C         37.04534       36.90430       32.99319
C         38.38850       37.55420       32.70209
O         38.60467       38.02848       31.59444
C         37.20383       35.41943       33.41467
C         37.89401       34.57647       32.36327
C         39.26553       34.29126       32.47690
C         37.18349       34.08022       31.25699
C         39.91938       33.55284       31.48620
C         37.83698       33.33518       30.27193
C         39.21060       33.07832       30.37793
O         39.85789       32.38210       29.42209
H         36.46278       36.53108       30.96751
H         36.60509       37.45654       33.85272
H         36.22592       34.96436       33.68300
H         37.80830       35.39684       34.34650
H         39.83436       34.65896       33.32139
H         36.12293       34.27252       31.15301
H         40.98037       33.35707       31.57659
H         37.27613       32.96993       29.42081
H         39.40668       32.05364       28.63122
N         39.33387       37.63552       33.67574
C         40.61899       38.28923       33.49385
C         40.67819       39.43249       34.47804
O         41.21492       39.26816       35.56657
C         41.74661       37.25441       33.68139
C         43.13211       37.85729       33.39938
C         44.20882       36.81975       33.52793
O         45.19680       36.98062       34.42857
O         44.20349       35.83389       32.80757
H         39.12924       37.23713       34.60531
H         40.73013       38.69982       32.46570
H         41.57419       36.42720       32.95815
H         41.71371       36.82869       34.70914
H         43.33814       38.68485       34.11089
H         43.15821       38.26855       32.36683
N         40.07515       40.61934       34.18073
C         39.98271       41.68747       35.16302
C         39.05144       41.23604       36.27073
O         39.46616       41.18692       37.42035
C         39.50705       43.03026       34.56417
C         40.43435       43.53689       33.44188
C         40.31028       45.02497       33.23959
O         40.66160       45.77552       34.13590
O         39.85166       45.56328       32.09378
H         39.65761       40.74974       33.24716
H         40.99782       41.88806       35.57624
H         39.52364       43.75594       35.40778
H         38.47208       42.97570       34.17388
H         40.21930       42.97632       32.50728
H         41.49693       43.36053       33.71413
N         37.77992       40.84173       35.97816
C         36.87268       40.34070       36.98720
H         35.90793       40.05055       36.51794
H         37.30855       39.44194       37.47466
H         36.67993       41.12262       37.75080
H         37.45129       40.86917       35.00063
Ca        38.60179       44.48767       30.57704
O         37.86847       41.66153       31.33495
H         37.24997       41.68665       32.10728
H         37.93705       40.70256       31.10009
O         38.54363       44.54002       26.53791
H         39.01766       43.88344       25.96813
H         37.72529       44.76678       26.02892
O         38.03095       41.93656       28.14088
H         37.93929       41.67180       27.19122
H         38.56970       41.21339       28.54928
O         40.19941       46.30588       28.53413
H         41.08143       46.72920       28.68557
H         39.83225       46.77309       27.74207
O         41.15417       43.08140       29.46114
H         41.11766       42.31380       30.08563
H         42.03106       43.50552       29.63902

Ca 1.0



