%chk=apoCaM-CA-Ng.loop1.water4.frame50.chk
%nprocshared=20
%mem=10GB
%nosave
#b3lyp/svp scf=(tight,noincore,xqc) Test 
#IOP(5/87=12) Density=Current Pop=(MK,readradii) iop(6/33=2) iop(6/42=6)

apoCaM-CA-Ng.loop1.water4.frame50 

   0  1 
C         74.84103       58.90363       64.98508
C         74.87260       59.84861       66.15001
O         75.76033       60.68642       66.22113
H         75.68421       59.10326       64.29024
H         74.91358       57.85774       65.34946
H         73.88671       59.02929       64.43027
N         73.90345       59.77880       67.10337
C         73.83107       60.70578       68.23109
C         75.01095       60.60598       69.20538
O         75.09244       61.45799       70.07519
C         72.48858       60.55227       68.99114
C         72.31078       59.21827       69.66963
O         72.25860       58.18933       69.01608
O         72.16922       59.15903       71.00753
H         73.15767       59.08093       66.96757
H         73.83306       61.73217       67.80178
H         71.64375       60.70401       68.28414
H         72.42359       61.34898       69.76247
N         75.92728       59.59320       69.16106
C         77.02634       59.44443       70.12319
C         78.24002       60.28775       69.73565
O         78.63290       60.19243       68.58048
C         77.52727       57.97763       70.15237
C         76.62839       56.98558       70.90792
C         75.23352       56.77560       70.31445
C         74.49897       55.67123       71.08986
N         73.15589       55.44897       70.55972
H         75.79301       58.84493       68.46642
H         76.66794       59.66601       71.13861
H         78.48863       57.95127       70.71177
H         77.74269       57.61733       69.12207
H         76.52837       57.31951       71.96475
H         77.16098       56.00918       70.90669
H         75.32372       56.47495       69.24807
H         74.65345       57.71752       70.38525
H         74.42492       55.95148       72.16464
H         75.08016       54.72512       71.01408
H         72.57227       56.30319       70.70140
H         73.20220       55.20850       69.54288
H         72.71300       54.65568       71.07687
N         79.00048       61.02675       70.61439
C         78.76088       61.30082       72.03790
C         78.55443       60.02397       72.85348
O         77.47369       59.84357       73.40094
C         77.59072       62.28587       72.19155
C         77.76386       63.57309       71.43455
O         76.73406       64.42563       71.42750
O         78.76946       63.82763       70.78993
H         79.86182       61.44664       70.22916
H         79.64146       61.83872       72.45628
H         77.44755       62.53921       73.26003
H         76.66330       61.81042       71.83819
N         79.50105       59.05433       72.98553
C         80.87751       59.14935       72.52975
C         81.83169       58.74494       73.64670
O         81.37735       58.36121       74.71424
H         79.22277       58.18168       73.46167
H         81.11893       60.16471       72.16340
H         81.02017       58.43009       71.69641
N         83.18551       58.74464       73.47771
C         83.84687       59.31324       72.31211
C         83.83207       60.83797       72.37995
O         83.98258       61.47850       71.35178
C         85.27498       58.74832       72.14811
C         86.17771       59.01972       73.32446
O         86.49688       60.28218       73.66589
O         86.63978       58.08935       73.96635
H         83.76461       58.37572       74.24904
H         83.29459       58.98944       71.40299
H         85.74241       59.16464       71.23076
H         85.18740       57.64655       72.01258
N         83.69744       61.47589       73.58179
C         83.65095       62.91936       73.75412
C         82.46922       63.30882       74.61691
O         81.67618       62.45216       74.98230
H         83.66314       60.91631       74.44531
H         83.62664       63.46233       72.78533
H         84.56819       63.22199       74.30255
N         82.33354       64.59757       75.04685
C         81.30626       64.98601       76.01494
C         79.89312       64.77960       75.48665
O         79.71382       64.47503       74.31439
C         81.52776       66.43337       76.53791
C         81.38315       67.50895       75.45642
O         82.80691       66.53982       77.10927
H         83.03842       65.28553       74.74492
H         81.42158       64.31229       76.89385
H         80.76367       66.66842       77.31518
H         82.74994       66.15303       78.02256
H         82.13631       67.37999       74.65263
H         80.36720       67.48376       75.01080
H         81.53773       68.51065       75.91284
N         78.83712       64.88782       76.34232
C         77.45151       64.62539       75.97384
C         76.63811       65.88443       76.20004
O         76.63973       66.40303       77.30914
C         76.89667       63.42863       76.80724
C         77.74742       62.15719       76.53549
C         75.40895       63.18553       76.47668
C         77.30265       60.91968       77.31712
H         79.02549       65.13012       77.32795
H         77.37456       64.34206       74.90153
H         76.96887       63.67735       77.89019
H         78.80203       62.36024       76.82014
H         77.72553       61.90913       75.45509
H         75.28121       62.92634       75.40415
H         74.98186       62.37777       77.10294
H         74.80598       64.08722       76.70364
H         77.31690       61.12262       78.40825
H         76.28880       60.59093       77.01114
H         77.99723       60.08100       77.09896
N         75.88472       66.40582       75.18857
C         75.06047       67.60317       75.33301
C         73.56679       67.29154       75.26113
O         72.78163       68.20955       75.44902
C         75.47938       68.66981       74.28957
C         75.17492       68.25168       72.84560
O         76.85425       68.93398       74.40124
H         75.87829       65.91391       74.28286
H         75.22412       68.04882       76.33898
H         74.90746       69.60924       74.47248
H         76.98151       69.45860       75.23421
H         75.48463       69.05856       72.14874
H         75.71969       67.32935       72.56406
H         74.08697       68.08011       72.71056
N         73.10024       66.02529       75.02824
C         71.69210       65.62479       75.04370
C         70.88767       66.27605       73.91938
O         71.38156       67.16898       73.24431
C         71.07098       65.84848       76.45560
C         71.88460       65.12694       77.53818
O         69.75516       65.36199       76.49655
H         73.77208       65.26458       74.86250
H         71.66936       64.53058       74.83527
H         71.06546       66.93965       76.67614
H         69.29147       65.83259       77.23806
H         71.42133       65.29525       78.53328
H         71.90868       64.03405       77.33796
H         72.92483       65.51127       77.57761
N         69.63222       65.81819       73.63252
C         68.78460       66.35378       72.56525
C         69.34535       66.12953       71.16017
O         68.74968       66.62615       70.21384
C         67.35978       65.75951       72.67219
C         67.29564       64.25417       72.34727
C         65.89690       63.69195       72.63066
C         65.74054       62.22061       72.20782
N         66.68024       61.32927       72.89170
H         69.25434       65.06192       74.21737
H         68.69369       67.44938       72.73729
H         66.67734       66.29834       71.97816
H         66.99514       65.93857       73.70806
H         68.02874       63.70219       72.96701
H         67.55010       64.10080       71.27601
H         65.14270       64.28561       72.06957
H         65.67858       63.79084       73.71718
H         65.87900       62.13080       71.10785
H         64.70144       61.90461       72.44941
H         66.59516       61.43446       73.92852
H         66.45807       60.34136       72.63151
H         67.66096       61.52485       72.58884
N         70.48335       65.41133       70.94125
C         71.07489       65.24202       69.62131
C         70.27800       64.24992       68.80190
O         70.11981       63.11425       69.22942
C         72.53979       64.77585       69.75044
C         73.43139       65.75322       70.55123
C         73.61386       67.11639       69.90731
O         74.84263       67.54283       69.54199
O         72.66088       67.86240       69.75571
H         70.97849       64.99671       71.74027
H         71.09267       66.21587       69.09605
H         72.97906       64.63469       68.73859
H         72.55854       63.79080       70.26869
H         74.40915       65.25700       70.65561
H         73.04418       65.88739       71.58063
N         69.76566       64.61444       67.59287
C         69.01965       63.71681       66.73439
H         68.01226       64.14209       66.54562
H         69.55189       63.61182       65.76532
H         68.89912       62.70589       67.17722
H         69.92170       65.57317       67.24746
Ca        76.56898       66.24008       70.12861
O         75.66814       64.00841       67.96674
H         75.53445       63.83509       68.93151
H         76.01243       63.15195       67.60998
O         78.79556       67.10000       72.23536
H         78.13735       67.81769       72.05694
H         78.32164       66.47053       72.83462
O         79.98593       67.01977       69.20491
H         80.65351       66.98776       68.47429
H         80.47184       66.68152       69.99852
O         78.95334       64.37441       67.76328
H         79.86290       64.06359       68.00097
H         78.50553       63.57054       67.39853

Ca 1.0



