%chk=apoCaM-CA-Ng.loop2.water6.frame67.chk
%nprocshared=20
%mem=10GB
%nosave
#b3lyp/svp scf=(tight,noincore,xqc) Test 
#IOP(5/87=12) Density=Current Pop=(MK,readradii) iop(6/33=2) iop(6/42=6)

apoCaM-CA-Ng.loop2.water6.frame67 

   -2  1 
C         40.76326       43.04906       86.68030
C         41.88429       42.81454       87.65485
O         42.87197       42.19665       87.28379
H         39.93030       43.61783       87.14665
H         41.14051       43.63582       85.81560
H         40.36651       42.07911       86.31639
N         41.81304       43.31542       88.92038
C         42.90346       43.20292       89.88783
C         43.13684       41.79114       90.42514
O         44.07671       41.63061       91.19022
C         42.67244       44.17926       91.06713
C         41.45221       43.89741       91.91223
O         41.17653       44.70476       92.95341
O         40.71124       42.95623       91.67372
H         40.98202       43.87317       89.17123
H         43.83548       43.54008       89.38158
H         42.58056       45.20800       90.65630
H         43.56372       44.16173       91.73094
N         42.32792       40.73489       90.11115
C         42.48945       39.38638       90.65196
C         43.82606       38.77934       90.25676
O         44.57873       38.35487       91.12402
C         42.27133       39.38043       92.17804
H         41.53404       40.87893       89.47198
H         41.69650       38.74247       90.21099
H         43.04215       39.97886       92.70691
H         41.27275       39.79857       92.42271
H         42.32028       38.34129       92.56894
N         44.18399       38.70663       88.93995
C         45.42239       38.09360       88.45420
C         46.69159       38.78602       88.95960
O         47.77039       38.28355       88.67393
C         45.44989       36.58202       88.79050
C         44.24085       35.86221       88.25759
O         43.41650       35.21372       89.10232
O         44.00699       35.84965       87.05972
H         43.53296       39.08415       88.23450
H         45.44144       38.17097       87.34535
H         45.50999       36.42785       89.88727
H         46.35201       36.11651       88.33664
N         46.66084       39.93965       89.69501
C         47.85018       40.57231       90.24905
C         48.82009       41.12180       89.21692
O         49.87857       41.58396       89.61764
H         45.76451       40.38472       89.91208
H         48.37371       39.82572       90.88525
H         47.54321       41.41745       90.90306
N         48.55017       41.09917       87.88167
C         49.50136       41.53105       86.85888
C         49.76043       43.02006       86.92287
O         48.84014       43.77823       87.20057
C         48.97134       41.18098       85.45971
C         48.70560       39.69950       85.35456
N         47.44886       39.24193       85.15554
O         49.62739       38.90640       85.47898
H         47.64557       40.72505       87.56624
H         50.45650       40.97444       86.99694
H         49.71569       41.47153       84.68604
H         48.03651       41.75418       85.27476
H         46.65780       39.89593       85.06502
H         47.26283       38.22996       85.11411
N         51.00362       43.51304       86.65951
C         51.30471       44.93040       86.73890
C         50.68177       45.74583       85.62329
O         50.25334       45.19576       84.61851
H         51.77139       42.86004       86.43867
H         52.40321       45.08758       86.66729
H         50.97594       45.30307       87.73175
N         50.66220       47.10311       85.74256
C         50.26377       48.03763       84.68362
C         48.84776       47.87254       84.13313
O         48.55455       48.55814       83.15763
C         50.48491       49.50640       85.14964
C         49.58389       49.90358       86.32826
O         51.82410       49.69528       85.52718
H         51.03273       47.49263       86.62176
H         50.94700       47.85227       83.82558
H         50.24018       50.20500       84.31432
H         52.34688       49.80245       84.69011
H         49.76870       49.26905       87.21957
H         49.77907       50.95914       86.61201
H         48.51695       49.81877       86.04913
N         47.92527       47.00921       84.64477
C         46.60862       46.80262       84.03851
C         46.49555       45.39191       83.49163
O         47.41708       44.60224       83.68152
C         45.46082       47.18688       85.03241
C         45.49303       46.49154       86.42356
C         45.47774       48.70750       85.25785
C         45.30694       44.97789       86.40094
H         48.16484       46.44629       85.47471
H         46.48495       47.44618       83.13846
H         44.48465       46.95993       84.55173
H         44.65065       46.89641       87.02773
H         46.43263       46.73658       86.96243
H         44.61770       49.01733       85.88942
H         46.41116       49.01846       85.76525
H         45.39730       49.24724       84.29015
H         44.34814       44.72479       85.90575
H         46.14998       44.46930       85.89885
H         45.27061       44.59836       87.44380
N         45.39528       45.00195       82.78558
C         45.20595       43.63965       82.30254
C         45.01209       43.60524       80.78046
O         44.27488       42.76200       80.29033
C         44.02578       43.05386       83.10243
C         43.77658       41.57788       83.00699
O         42.80823       41.12592       83.59723
O         44.56242       40.72944       82.31361
H         44.63368       45.68219       82.62455
H         46.10428       43.02634       82.53095
H         43.10122       43.59784       82.80710
H         44.20677       43.24275       84.17990
N         45.71250       44.45306       79.96321
C         45.73775       44.32780       78.50287
C         44.34575       44.43105       77.87223
O         43.71892       45.46431       78.04118
C         46.62535       45.42549       77.86737
C         46.83066       45.12767       76.40148
C         47.75325       44.13962       76.02052
C         46.08287       45.78989       75.41221
C         47.92777       43.81823       74.67286
C         46.24990       45.45372       74.06411
C         47.17261       44.47022       73.69523
H         46.31075       45.17047       80.39934
H         46.20321       43.34548       78.29110
H         47.62024       45.49340       78.35839
H         46.13075       46.41317       78.00814
H         48.33634       43.61989       76.77078
H         45.35391       46.54326       75.68396
H         48.64325       43.05766       74.38888
H         45.65961       45.95019       73.30480
H         47.30087       44.21018       72.65262
N         43.82063       43.44342       77.07540
C         42.51426       43.49919       76.42465
C         41.35934       43.79837       77.36541
O         40.59064       44.70958       77.09150
C         42.35584       42.09275       75.82334
C         43.77804       41.76234       75.45029
C         44.53924       42.24680       76.68082
H         42.55922       44.26126       75.61322
H         42.07062       41.35974       76.61152
H         41.61516       42.02369       74.99840
H         43.97525       40.70546       75.17244
H         44.04959       42.41360       74.58616
H         44.51658       41.52079       77.52190
H         45.58064       42.44366       76.35322
N         41.17675       43.05849       78.49582
C         40.05859       43.24462       79.42766
C         40.06805       44.61303       80.10633
O         39.09550       44.93347       80.77542
C         40.11177       42.14395       80.50668
C         39.87408       40.73683       79.91020
C         40.44840       39.69708       80.81645
O         41.76305       39.79858       81.06825
O         39.77188       38.80540       81.30118
H         41.86474       42.31378       78.68724
H         39.10603       43.15290       78.86024
H         39.36736       42.30565       81.31687
H         41.12467       42.22145       80.96605
H         40.42320       40.61264       78.95486
H         38.79277       40.58442       79.70506
N         41.11636       45.47235       79.98895
C         41.11903       46.79559       80.56991
H         42.07741       47.30688       80.33126
H         40.28800       47.39542       80.14148
H         41.01214       46.73151       81.67195
H         41.94983       45.18615       79.47663
Ca        43.45914       38.77612       82.09991
O         42.41884       36.42711       80.27046
H         41.61883       36.95571       80.51404
H         42.26655       35.54433       80.69155
O         46.49848       37.84806       82.42988
H         47.13319       37.75954       81.67553
H         46.72444       37.09560       83.03223
O         44.06493       35.73604       82.90905
H         43.89904       35.28753       83.77591
H         44.80710       35.22380       82.50061
O         41.33186       37.17080       83.70969
H         40.68188       36.94766       82.99762
H         41.12600       36.53495       84.43977
O         45.08332       38.37010       79.65214
H         44.93265       37.82951       78.83683
H         45.52145       39.19711       79.32927
O         44.27129       38.49884       84.96648
H         43.85036       37.60651       85.03821
H         43.74668       39.07097       85.58056

Ca 1.0



