%chk=apoCaM-CA-Ng.loop3.water2.frame536.chk
%nprocshared=20
%mem=10GB
%nosave
#b3lyp/svp scf=(tight,noincore,xqc) Test 
#IOP(5/87=12) Density=Current Pop=(MK,readradii) iop(6/33=2) iop(6/42=6)

apoCaM-CA-Ng.loop3.water2.frame536 

   0  1 
C         75.84622        6.13604       76.64463
C         75.51563        5.62368       78.01257
O         74.55842        4.87648       78.15968
H         76.86515        5.79248       76.36377
H         75.12409        5.75095       75.89391
H         75.82097        7.24481       76.64203
N         76.30532        5.96155       79.06805
C         76.10609        5.41326       80.40107
C         74.78573        5.88753       80.99535
O         74.62251        7.08139       81.20663
C         77.32687        5.75279       81.28007
C         77.33610        4.96435       82.54260
O         77.91412        5.39274       83.52405
O         76.95333        3.68233       82.53093
H         77.12019        6.57014       78.89008
H         76.07707        4.31736       80.28710
H         77.38098        6.84377       81.49018
H         78.25014        5.46738       80.73501
N         73.76563        5.00179       81.21216
C         72.41289        5.42735       81.57856
C         72.29039        5.90374       83.02668
O         71.29393        6.53207       83.35015
C         71.41553        4.30076       81.23164
C         69.93846        4.72685       81.27536
C         69.04788        3.64852       80.64019
C         67.58066        4.08541       80.57600
N         66.77207        3.07817       79.88839
H         73.92515        4.01042       80.97121
H         72.16531        6.28227       80.90980
H         71.59530        3.41932       81.88037
H         71.63457        4.00336       80.18170
H         69.82222        5.65738       80.67856
H         69.61722        4.92461       82.32028
H         69.11932        2.70616       81.21537
H         69.40173        3.45843       79.60294
H         67.50447        5.04745       80.02204
H         67.19046        4.23872       81.60642
H         66.82417        2.16335       80.39262
H         65.77705        3.39683       79.85814
H         67.11285        2.95733       78.90693
N         73.26680        5.65682       83.94528
C         73.26550        6.18849       85.30978
C         74.45424        7.12620       85.45847
O         74.24515        8.27638       85.82417
C         73.13674        5.05809       86.37531
C         73.98342        3.83963       86.14688
O         75.31719        3.89454       86.20830
O         73.45202        2.79502       85.80237
H         74.07195        5.08326       83.65961
H         72.36989        6.82326       85.49363
H         72.08284        4.70666       86.31326
H         73.28808        5.45918       87.40051
N         75.71068        6.74755       85.10104
C         76.85812        7.64266       85.09407
C         77.98223        7.15228       85.97966
O         79.02098        7.79050       85.99364
H         75.85784        5.78941       84.76282
H         76.58663        8.66935       85.42005
H         77.23152        7.72391       84.05069
N         77.82983        6.05348       86.78034
C         78.83721        5.60360       87.72646
C         79.20136        4.14126       87.48328
O         78.59242        3.47684       86.66005
C         78.28269        5.77271       89.16167
C         77.97577        7.21192       89.52552
N         76.97741        7.90543       88.92362
O         78.62960        7.75215       90.40451
H         76.94125        5.54787       86.78880
H         79.76592        6.20569       87.62674
H         79.04241        5.39505       89.87831
H         77.36170        5.16280       89.29445
H         76.37409        7.47759       88.20893
H         76.78677        8.88226       89.19210
N         80.21945        3.58641       88.20338
C         80.62354        2.19009       88.14026
C         81.05481        1.74614       86.76108
O         81.82623        2.44293       86.11670
H         80.73758        4.18785       88.85953
H         79.80403        1.54212       88.52010
H         81.49131        2.05950       88.82269
N         80.64803        0.53352       86.28187
C         81.04624        0.00297       84.97816
C         80.37026        0.74075       83.83991
O         79.60664        1.66339       84.08660
C         80.78262       -1.52413       84.91621
C         81.83987       -2.27562       85.69341
C         81.52227       -3.03893       86.82718
C         83.17805       -2.22469       85.25572
C         82.53004       -3.73022       87.51399
C         84.17838       -2.91401       85.93976
C         83.85864       -3.67009       87.07346
O         84.81732       -4.34279       87.74177
H         80.07316       -0.06153       86.89896
H         82.13438        0.17232       84.83225
H         80.85114       -1.91201       83.87980
H         79.75224       -1.74087       85.27264
H         80.50102       -3.09806       87.18057
H         83.44922       -1.65413       84.37558
H         82.27906       -4.31561       88.38901
H         85.20019       -2.86056       85.58397
H         85.74468       -4.32659       87.46282
N         80.68997        0.41325       82.54816
C         80.29717        1.16046       81.35718
C         78.79190        1.16915       81.11384
O         78.05330        1.56049       81.99443
C         80.85043        2.62559       81.43554
C         80.55813        3.46422       80.15998
C         82.35881        2.64389       81.75881
C         81.22440        2.95839       78.87595
H         81.34796       -0.36414       82.38969
H         80.78947        0.67788       80.48643
H         80.34134        3.15533       82.26929
H         80.90549        4.50628       80.33544
H         79.46248        3.51101       79.99014
H         82.94473        2.09974       80.99027
H         82.72580        3.69040       81.82395
H         82.56014        2.16656       82.74041
H         80.87908        1.93978       78.61333
H         80.95674        3.63423       78.03704
H         82.32932        2.95933       78.96992
N         78.28580        0.91046       79.87265
C         76.95693        1.38730       79.47437
C         75.75482        0.71552       80.13128
O         74.66037        1.24164       79.97375
C         76.80085        1.35764       77.94370
O         77.79631        2.13879       77.33276
H         78.93174        0.57924       79.14169
H         76.92325        2.45082       79.76442
H         75.81755        1.78496       77.65100
H         76.82339        0.30806       77.56886
H         78.51798        1.52432       77.03870
N         75.84279       -0.44506       80.83511
C         74.66500       -1.09768       81.41238
C         74.10774       -0.30423       82.58166
O         74.87840       -0.02574       83.48866
C         75.02902       -2.49821       81.90856
H         76.76080       -0.90724       80.91104
H         73.91137       -1.23872       80.62290
H         75.79990       -2.45151       82.70475
H         74.12408       -3.00106       82.31336
H         75.41868       -3.10525       81.06482
N         72.80276        0.08057       82.71181
C         71.70489       -0.13881       81.76956
C         71.39502       -1.61578       81.53652
O         71.09893       -2.28589       82.51690
C         70.42245        0.47910       82.36804
H         72.57594        0.59489       83.57963
H         71.92457        0.40616       80.83602
H         70.56537        1.55379       82.57853
H         69.55509        0.36323       81.69050
H         70.16060       -0.01076       83.33222
N         71.32907       -2.21617       80.30509
C         71.72723       -1.65462       79.01342
C         72.59662       -2.66744       78.28947
O         73.74691       -2.36808       77.99956
C         70.51697       -1.29609       78.12571
C         69.72851       -0.10364       78.67799
C         68.66757        0.33992       77.71369
O         67.76097       -0.41509       77.40175
O         68.71384        1.57907       77.18698
H         70.97075       -3.18415       80.29239
H         72.32004       -0.72891       79.12892
H         69.84481       -2.17090       77.98804
H         70.90942       -0.99529       77.12774
H         70.42519        0.74814       78.84338
H         69.25316       -0.37843       79.63756
N         72.10002       -3.89242       77.95164
C         72.88380       -4.87987       77.24371
H         73.78085       -5.15216       77.83821
H         72.27545       -5.79527       77.07770
H         73.19487       -4.47923       76.25577
H         71.12898       -4.13796       78.19578
Ca        76.12328        2.87037       84.41785
O         76.51362        0.44585       86.79720
H         76.21562       -0.48972       86.66906
H         76.37259        0.61971       87.76154
O         77.57228       -0.62973       84.04529
H         77.15944       -1.40967       84.49285
H         77.88624       -0.98089       83.17487

Ca 1.0



