%chk=apoCaM-CA-Ng.loop2.water4.frame1229.chk
%nprocshared=20
%mem=10GB
%nosave
#b3lyp/svp scf=(tight,noincore,xqc) Test 
#IOP(5/87=12) Density=Current Pop=(MK,readradii) iop(6/33=2) iop(6/42=6)

apoCaM-CA-Ng.loop2.water4.frame1229 

   -2  1 
C         47.72160       19.75576       32.73969
C         47.33720       19.05003       31.46523
O         47.13653       19.75180       30.48448
H         48.64038       20.34907       32.54432
H         46.90796       20.44859       33.03588
H         47.94898       19.10322       33.59644
N         47.24266       17.69479       31.32353
C         47.42857       16.68307       32.36274
C         46.23888       15.70980       32.35196
O         45.15079       16.13081       31.98269
C         48.82148       16.03665       32.15620
C         48.91416       15.35677       30.82418
O         48.17202       14.42291       30.57182
O         49.76395       15.77515       29.86873
H         47.05789       17.34662       30.37154
H         47.44324       17.12286       33.37251
H         49.05620       15.31760       32.96737
H         49.58609       16.84227       32.20815
N         46.36493       14.39948       32.73448
C         45.27210       13.43031       32.74050
C         44.66866       13.26153       31.35240
O         43.48678       13.52529       31.17259
C         44.22628       13.80340       33.80344
H         47.28089       14.04659       33.04018
H         45.67871       12.44031       33.04791
H         43.44650       13.01272       33.85842
H         44.71345       13.87467       34.79911
H         43.73230       14.76978       33.57672
N         45.42643       12.77855       30.32377
C         44.88427       12.57726       28.97589
C         45.79675       11.73708       28.09309
O         46.90863       11.40118       28.47612
C         44.58073       13.94246       28.30241
C         45.82358       14.77815       28.17262
O         45.93815       15.78862       28.84369
O         46.81593       14.43817       27.32537
H         46.39839       12.50852       30.53286
H         43.94286       11.99263       29.07206
H         43.84719       14.49199       28.92806
H         44.11697       13.82070       27.30120
N         45.34436       11.33994       26.87284
C         46.11698       10.54869       25.93267
C         47.28384       11.31461       25.35857
O         47.57863       12.41385       25.80066
H         44.38455       11.59516       26.59418
H         45.44897       10.30520       25.07771
H         46.44929        9.59332       26.39230
N         47.94210       10.80921       24.28261
C         48.96476       11.54699       23.55778
C         48.32791       11.99890       22.25936
O         47.90542       11.16040       21.47374
C         50.21885       10.66242       23.40741
C         51.36594       11.33591       22.69359
N         51.30139       11.61622       21.37091
O         52.38508       11.59941       23.31455
H         47.62871        9.90490       23.89519
H         49.27078       12.45289       24.12741
H         49.97527        9.71169       22.88641
H         50.55086       10.40558       24.43904
H         50.47303       11.36816       20.81334
H         52.09982       12.05778       20.89175
N         48.14632       13.32783       22.01251
C         47.38297       13.79683       20.86380
C         47.28031       15.31440       20.78213
O         47.87794       16.00291       21.59762
H         48.51465       14.00610       22.69463
H         46.35769       13.37734       20.94917
H         47.85922       13.42875       19.92895
N         46.56471       15.94567       19.80407
C         45.76780       15.27258       18.77933
C         46.40401       15.38647       17.40593
O         45.86754       14.79413       16.47831
C         44.32718       15.83459       18.76436
C         43.61648       15.60545       20.10143
O         44.35854       17.20885       18.47039
H         46.59471       16.97779       19.77997
H         45.70897       14.18423       18.97790
H         43.75648       15.29304       17.97290
H         43.46099       17.45253       18.12312
H         43.57338       14.51932       20.32960
H         44.14352       16.13002       20.92602
H         42.57727       15.99348       20.04391
N         47.56619       16.07239       17.20051
C         48.28434       16.06600       15.92924
C         49.62522       15.36494       16.15022
O         50.03141       15.25003       17.30071
C         48.39032       17.51133       15.34528
C         49.21190       18.46259       16.25490
C         46.97050       18.05141       15.07911
C         49.39130       19.86372       15.66532
H         48.00621       16.57060       17.98607
H         47.72049       15.45754       15.19881
H         48.90736       17.46875       14.36791
H         50.22572       18.03062       16.39243
H         48.73729       18.56916       17.25210
H         46.41407       17.35269       14.41831
H         46.40474       18.16902       16.02803
H         46.99756       19.02840       14.55700
H         50.04985       20.46355       16.32790
H         49.85475       19.80282       14.66025
H         48.42238       20.39755       15.58865
N         50.37479       14.79804       15.16183
C         50.03356       14.72579       13.74163
C         51.30232       14.70845       12.89688
O         52.38805       14.63512       13.43947
C         49.09934       13.52809       13.46016
C         49.65878       12.21840       13.94105
O         48.99850       11.51520       14.88198
O         50.70114       11.78101       13.48203
H         51.22899       14.30892       15.47125
H         49.51553       15.65030       13.43679
H         48.87467       13.46118       12.37494
H         48.13338       13.69022       13.97787
N         51.23577       14.82108       11.54330
C         52.41892       15.01147       10.70737
C         52.20253       16.27059        9.87623
O         51.17842       16.31917        9.21075
C         52.61000       13.79921        9.77011
C         53.90145       13.93461        8.99295
C         53.88530       14.18101        7.61019
C         55.13906       13.83960        9.65767
C         55.08526       14.35042        6.91066
C         56.33528       14.00434        8.95344
C         56.30830       14.26459        7.58171
H         50.30981       14.82654       11.09197
H         53.33309       15.09869       11.32867
H         51.73553       13.73291        9.08601
H         52.64911       12.85191       10.35131
H         52.94653       14.26323        7.07782
H         55.17766       13.64729       10.72290
H         55.06735       14.55531        5.84831
H         57.28280       13.93756        9.47304
H         57.23522       14.40082        7.03944
N         53.09794       17.31129        9.79470
C         54.44720       17.34455       10.35252
C         54.56556       17.67333       11.83276
O         55.68860       17.80876       12.29492
C         55.13076       18.47890        9.55968
C         54.34213       18.50444        8.26398
C         52.93586       18.36549        8.81317
H         54.95385       16.39588       10.09731
H         54.92503       19.45855       10.05430
H         56.23149       18.37322        9.45491
H         54.50232       19.41369        7.64665
H         54.58681       17.59764        7.66532
H         52.64856       19.30218        9.34439
H         52.18821       18.15834        8.01835
N         53.47166       17.89788       12.61588
C         53.56263       18.46436       13.96400
C         52.77545       19.77028       14.01208
O         51.97594       20.01581       13.11988
C         53.01800       17.45555       14.99765
C         53.95320       16.25346       15.22944
C         55.17820       16.59045       16.03555
O         56.01756       17.36633       15.61015
O         55.36923       16.00161       17.23190
H         52.53247       17.73268       12.22730
H         54.60952       18.72706       14.19812
H         52.03078       17.10305       14.62661
H         52.82863       17.91593       15.98601
H         54.27228       15.80630       14.26673
H         53.38133       15.49481       15.80625
N         52.95852       20.70363       14.99146
C         53.95693       20.60578       16.03630
H         54.97145       20.54324       15.58830
H         53.92232       21.51503       16.67247
H         53.77954       19.73126       16.68744
H         52.38776       21.56302       14.96142
Ca        48.87971       15.11998       27.91762
O         48.99146       15.75948       24.93466
H         49.73255       15.13535       24.73178
H         48.19371       15.17831       25.01214
O         49.93556       11.49557       28.84418
H         49.53424       10.95479       29.57041
H         50.11710       10.84364       28.12120
O         52.42430       14.43989       29.10983
H         52.54867       14.93561       29.95792
H         53.10591       14.81811       28.49926
O         51.57787       13.37957       26.21328
H         52.45452       12.93244       26.32309
H         51.80334       14.33354       26.07283

Ca 1.0



