%chk=apoCaM-CA-Ng.loop1.water1.frame1307.chk
%nprocshared=20
%mem=10GB
%nosave
#b3lyp/svp scf=(tight,noincore,xqc) Test 
#IOP(5/87=12) Density=Current Pop=(MK,readradii) iop(6/33=2) iop(6/42=6)

apoCaM-CA-Ng.loop1.water1.frame1307 

   0  1 
C         33.16704       22.35287       54.13993
C         33.30018       21.50637       55.36844
O         33.23837       22.06001       56.45691
H         32.20622       22.90792       54.18430
H         34.00312       23.08310       54.10053
H         33.18218       21.73718       53.21775
N         33.52068       20.16005       55.27769
C         33.65934       19.30844       56.45562
C         35.10978       18.94157       56.69010
O         35.43209       17.78108       56.90882
C         32.69145       18.09979       56.41763
C         32.94586       17.13182       55.28837
O         33.29040       15.85866       55.56144
O         32.80782       17.47688       54.12615
H         33.64162       19.74528       54.34367
H         33.39126       19.88846       57.35604
H         31.64427       18.46408       56.34636
H         32.78939       17.54955       57.37968
N         36.04459       19.93124       56.71225
C         37.42667       19.71485       57.10719
C         37.51542       19.35365       58.58391
O         38.08379       18.30796       58.86247
C         38.33113       20.91428       56.74954
C         38.42747       21.05880       55.21937
C         39.48648       22.07889       54.79370
C         39.63170       22.08305       53.26375
N         40.69797       22.98615       52.83582
H         35.75335       20.88611       56.45596
H         37.83821       18.85817       56.52492
H         39.35112       20.69070       57.13340
H         37.98993       21.86254       57.21485
H         37.43867       21.33637       54.79353
H         38.72860       20.07470       54.79616
H         40.46303       21.78992       55.24065
H         39.21029       23.09236       55.15749
H         38.67026       22.39140       52.79611
H         39.87512       21.05421       52.91328
H         40.48301       23.96498       53.13286
H         41.61036       22.68150       53.24740
H         40.77366       22.95298       51.79329
N         36.97393       20.08132       59.60957
C         36.17349       21.30125       59.50618
C         34.72026       21.01058       59.83667
O         34.39332       19.90109       60.23951
C         36.75397       22.45882       60.35279
C         37.55882       22.04672       61.56168
O         37.11370       21.22378       62.53267
O         38.71227       22.43924       61.64301
H         37.07601       19.67728       60.55338
H         36.12506       21.66842       58.46989
H         35.95887       23.18562       60.62753
H         37.46323       23.02009       59.70255
N         33.76674       21.94597       59.54907
C         32.34439       21.65000       59.59016
C         31.80681       21.41648       60.97161
O         32.48774       21.67646       61.94894
H         34.05530       22.85924       59.16413
H         32.16018       20.74413       58.98018
H         31.76458       22.48181       59.13488
N         30.56586       20.86880       61.10154
C         29.91499       20.59837       62.38085
C         28.45109       21.04601       62.31994
O         27.96751       21.30517       61.22685
C         29.99002       19.07706       62.63831
C         31.41673       18.61406       62.74631
O         31.86065       17.79481       61.95784
O         32.21141       19.10090       63.71792
H         30.08691       20.56442       60.23931
H         30.43616       21.14472       63.19249
H         29.48351       18.53964       61.80541
H         29.48032       18.78978       63.57348
N         27.63280       21.12861       63.41262
C         28.04433       21.02409       64.80188
C         28.77767       22.27028       65.21183
O         28.19594       23.34088       65.09215
H         26.63612       21.34182       63.24611
H         28.61215       20.10004       65.00035
H         27.13402       20.98635       65.43893
N         30.05191       22.22423       65.69421
C         30.78256       23.42986       66.07021
C         31.88482       23.69689       65.07230
O         32.28046       22.81116       64.33220
C         31.32054       23.33758       67.52051
C         30.18297       23.24115       68.53643
O         32.09140       24.46980       67.83965
H         30.53357       21.31350       65.75793
H         30.11118       24.31454       66.00890
H         31.93695       22.41723       67.62854
H         33.04240       24.23986       67.66408
H         29.54273       24.14791       68.48051
H         29.55956       22.34252       68.34943
H         30.60421       23.17084       69.56237
N         32.35588       24.96655       64.95736
C         33.34613       25.44441       64.00665
C         34.68719       24.79028       64.27936
O         34.85963       23.61657       63.98368
C         32.90056       25.31436       62.51176
C         31.41419       25.73169       62.33492
C         33.83570       26.16803       61.63002
C         30.91431       25.69996       60.88763
H         31.95740       25.68275       65.58462
H         33.43582       26.53512       64.21317
H         32.98347       24.25531       62.18597
H         31.24461       26.74993       62.74429
H         30.78250       25.01673       62.90554
H         33.60097       26.04644       60.55320
H         33.73786       27.24365       61.89554
H         34.89417       25.86367       61.76379
H         29.82393       25.91144       60.87048
H         31.41043       26.48471       60.28031
H         31.09076       24.70451       60.42856
N         35.68117       25.51149       64.86650
C         37.01098       24.98164       65.14733
C         37.34282       24.97254       66.64239
O         38.43634       24.53623       66.97710
C         38.06245       25.78173       64.33545
C         38.09343       27.27547       64.68381
O         37.79666       25.65720       62.96236
H         35.48358       26.48876       65.12236
H         37.08530       23.93018       64.80770
H         39.07834       25.37503       64.55178
H         38.10292       24.75374       62.69191
H         38.89443       27.77606       64.10104
H         37.13662       27.77154       64.41904
H         38.29451       27.42587       65.76461
N         36.48574       25.44584       67.59705
C         36.83893       25.51080       69.01851
C         36.97250       24.10967       69.61458
O         35.97574       23.40477       69.69368
C         35.78442       26.35467       69.77838
C         36.11098       26.50610       71.26650
O         35.72934       27.63265       69.19405
H         35.57536       25.82941       67.30407
H         37.80977       26.04973       69.10011
H         34.79399       25.84928       69.67424
H         34.82368       27.99841       69.37168
H         35.33129       27.12994       71.75378
H         36.12495       25.51740       71.77033
H         37.09695       26.99962       71.39772
N         38.19526       23.63289       70.01124
C         38.44977       22.27048       70.49633
C         37.79026       21.25078       69.57104
O         37.02134       20.40978       70.01735
C         38.03004       22.08203       71.97414
C         38.85151       22.93293       72.96452
C         38.40924       22.63144       74.41127
C         39.17294       23.42150       75.49094
N         40.56754       22.99385       75.62569
H         39.01934       24.23535       69.86380
H         39.54748       22.09007       70.45062
H         38.20987       21.01719       72.24457
H         36.94599       22.29702       72.08910
H         38.70376       24.01356       72.74904
H         39.92791       22.68780       72.84100
H         38.51171       21.54492       74.62794
H         37.33413       22.89945       74.49552
H         38.66497       23.24338       76.46550
H         39.12238       24.51126       75.27630
H         41.10260       23.16705       74.74656
H         41.01436       23.53883       76.39906
H         40.60789       21.97843       75.87544
N         38.00456       21.34321       68.23342
C         37.31458       20.53544       67.23410
C         37.48436       21.19330       65.87543
O         36.46522       21.58132       65.32739
C         37.73890       19.04062       67.24719
C         37.14678       18.20667       66.08502
C         35.64909       18.04473       66.12278
O         35.13263       17.47352       67.06991
O         34.86775       18.45971       65.09646
H         38.61297       22.11111       67.91253
H         36.22438       20.56522       67.46104
H         37.46538       18.57667       68.21904
H         38.83540       18.94963       67.16055
H         37.58976       17.18792       66.13308
H         37.45586       18.64842       65.11481
N         38.67889       21.39884       65.24264
C         39.99654       21.06225       65.73843
H         40.61655       21.98182       65.75859
H         40.00168       20.65331       66.75914
H         40.46709       20.32799       65.05151
H         38.66150       21.85400       64.32041
Ca        35.55486       19.84098       63.42028
O         33.65904       20.83722       66.48331
H         33.15532       20.06900       66.11663
H         33.60790       20.71503       67.46435

Ca 1.0



