%chk=apoCaM-CA-Ng.loop2.water3.frame849.chk
%nprocshared=20
%mem=10GB
%nosave
#b3lyp/svp scf=(tight,noincore,xqc) Test 
#IOP(5/87=12) Density=Current Pop=(MK,readradii) iop(6/33=2) iop(6/42=6)

apoCaM-CA-Ng.loop2.water3.frame849 

   -2  1 
C         63.04441       50.94854       90.80359
C         62.38053       50.08428       89.77434
O         62.80874       48.95647       89.57443
H         63.43234       51.87050       90.32293
H         62.30692       51.22656       91.58604
H         63.88867       50.41071       91.28553
N         61.30179       50.55556       89.08995
C         60.57403       49.77915       88.09650
C         59.17748       49.52994       88.63790
O         58.19179       49.96714       88.05909
C         60.61015       50.53137       86.74733
C         59.99398       49.76898       85.60055
O         59.46794       48.54032       85.77593
O         59.98576       50.26745       84.48662
H         60.96154       51.50713       89.30166
H         61.05442       48.78816       87.93777
H         61.67348       50.72176       86.48208
H         60.09864       51.51286       86.85376
N         59.04337       48.81490       89.79026
C         57.76280       48.53516       90.42733
C         57.11582       49.83540       90.88602
O         57.76707       50.55831       91.62809
C         57.98198       47.62133       91.64206
H         59.90255       48.44832       90.23001
H         57.13315       47.98240       89.70456
H         58.44747       46.66701       91.31452
H         58.65379       48.10502       92.38379
H         57.01854       47.38735       92.14002
N         55.87191       50.25393       90.49986
C         54.93772       49.49412       89.66286
C         53.78037       50.35894       89.15716
O         53.68857       51.52602       89.50612
C         54.38647       48.25915       90.43282
C         53.65257       48.58375       91.71130
O         53.12723       47.58044       92.43900
O         53.53295       49.73257       92.10521
H         55.58827       51.18726       90.83554
H         55.47101       49.16607       88.74535
H         55.20577       47.56969       90.69835
H         53.69863       47.68850       89.77589
N         52.87851       49.83823       88.27480
C         51.76889       50.58518       87.69944
C         50.47216       49.81229       87.84014
O         49.98228       49.34128       86.82370
H         53.01164       48.87037       87.94492
H         51.98616       50.69107       86.61400
H         51.67031       51.60982       88.10999
N         49.84090       49.58706       89.02950
C         50.23934       50.15667       90.30925
C         49.75574       51.59862       90.37346
O         48.55449       51.82639       90.31912
C         49.63700       49.29814       91.44298
C         50.10573       49.63208       92.83408
N         49.67921       48.87126       93.86755
O         50.88082       50.55439       93.03713
H         49.00399       48.98136       89.01028
H         51.34020       50.07970       90.40839
H         49.94070       48.24397       91.25942
H         48.52655       49.34857       91.40939
H         49.03237       48.08510       93.70881
H         50.00459       49.04865       94.82479
N         50.64317       52.62856       90.42026
C         50.25220       54.02493       90.32767
C         49.67685       54.61400       91.59597
O         49.36812       55.79709       91.56487
H         51.64690       52.41726       90.41127
H         49.55110       54.15969       89.47473
H         51.16154       54.62447       90.10378
N         49.54525       53.90208       92.75432
C         49.11730       54.51677       94.00986
C         50.22793       54.36865       95.06959
O         51.50401       54.25956       94.51493
C         47.82054       53.85182       94.52747
C         46.64183       54.08032       93.58377
O         48.01429       52.46678       94.68121
H         49.80150       52.90603       92.77312
H         48.93309       55.60465       93.86876
H         47.52990       54.31514       95.50035
H         48.12220       52.28678       95.65073
H         46.44552       55.16800       93.47562
H         46.84335       53.64225       92.58374
H         45.73253       53.59935       94.00452
N         50.19272       55.41621       96.09035
C         51.13230       55.18924       97.20954
C         50.60448       54.10138       98.15334
O         49.49513       54.23782       98.64906
C         51.35817       56.55483       97.92310
C         52.26904       56.47048       99.17522
C         51.91254       57.59391       96.92225
C         53.69867       55.99283       98.90888
H         49.22305       55.56337       96.45375
H         52.12258       54.87605       96.81379
H         50.37136       56.92845       98.27643
H         51.80097       55.79320       99.91968
H         52.32505       57.47870       99.64131
H         51.21063       57.74667       96.07569
H         52.05498       58.57679       97.41834
H         52.88272       57.26433       96.49379
H         53.69515       54.97309       98.48359
H         54.23632       56.67507       98.22045
H         54.25900       55.96970       99.86606
N         51.37001       53.00708       98.46246
C         50.93907       51.92950       99.35724
C         51.72749       51.90774      100.66905
O         51.44732       51.03091      101.47884
C         51.06859       50.54171       98.68028
C         50.09067       50.28732       97.56712
O         49.20115       49.46735       97.73336
O         50.18653       50.88289       96.36814
H         52.32090       52.94406       98.07326
H         49.87535       52.06554       99.65450
H         50.83382       49.77704       99.45442
H         52.10717       50.35234       98.33701
N         52.65779       52.85029      100.99885
C         53.31572       52.88862      102.30326
C         54.81565       53.13421      102.16637
O         55.18098       54.19129      101.66623
C         52.67446       54.02076      103.13221
C         53.39400       54.26696      104.43901
C         53.99868       55.51485      104.66794
C         53.48960       53.26750      105.42334
C         54.69279       55.75802      105.85400
C         54.18896       53.51500      106.61021
C         54.79061       54.75869      106.82412
H         52.83612       53.63053      100.35251
H         53.13494       51.94743      102.86125
H         51.60770       53.77658      103.33051
H         52.69231       54.95029      102.52120
H         53.94023       56.29929      103.92352
H         53.03242       52.29804      105.27142
H         55.15802       56.72145      106.01664
H         54.26812       52.74247      107.36401
H         55.33343       54.94958      107.74054
N         55.75763       52.25943      102.64509
C         57.18045       52.56501      102.72213
C         57.89392       52.54543      101.38001
O         59.10000       52.74943      101.37472
C         57.71410       51.50835      103.69525
C         56.84634       50.31598      103.36926
C         55.46955       50.96513      103.23639
H         57.35441       53.56235      103.18539
H         58.81249       51.34259      103.66819
H         57.44086       51.82156      104.73016
H         57.16453       49.94237      102.36921
H         56.89196       49.47661      104.09535
H         54.83233       50.32292      102.59110
H         54.99299       51.12353      104.22708
N         57.23235       52.35520      100.20191
C         57.90466       52.40611       98.90519
C         58.56873       53.75183       98.61533
O         59.30255       53.82463       97.63882
C         56.91390       52.07015       97.76816
C         55.78552       53.11312       97.63658
C         54.82606       52.71544       96.56343
O         54.16496       51.54824       96.66458
O         54.62929       53.44618       95.60570
H         56.22678       52.14885      100.22482
H         58.69876       51.62666       98.91865
H         56.47453       51.06839       97.97069
H         57.46379       52.01091       96.80270
H         56.21196       54.11310       97.40266
H         55.21378       53.19301       98.58213
N         58.34473       54.85903       99.38411
C         58.96414       56.14415       99.13117
H         59.65243       56.12258       98.26051
H         58.17477       56.89984       98.93654
H         59.54420       56.45221      100.02613
H         57.69417       54.81757      100.18000
Ca        51.71322       52.28147       95.52744
O         55.64654       50.43647       94.28278
H         55.81385       50.02033       95.16566
H         56.26631       51.20802       94.25109
O         53.54155       53.35465       92.32842
H         53.22495       52.41726       92.35208
H         54.49335       53.30037       92.59515
O         52.78648       49.08573       95.81733
H         52.82501       48.50322       95.01859
H         53.07930       48.50527       96.56407

Ca 1.0



