%chk=apoCaM-CA-Ng.loop1.water3.frame213.chk
%nprocshared=20
%mem=10GB
%nosave
#b3lyp/svp scf=(tight,noincore,xqc) Test 
#IOP(5/87=12) Density=Current Pop=(MK,readradii) iop(6/33=2) iop(6/42=6)

apoCaM-CA-Ng.loop1.water3.frame213 

   0  1 
C         11.45033       16.95530       63.67052
C         10.95388       16.27683       64.91050
O         11.39225       15.17604       65.21407
H         12.21877       16.33660       63.16145
H         10.59858       17.11592       62.97658
H         11.89464       17.93807       63.93462
N         10.02874       16.89757       65.69079
C          9.50817       16.30787       66.91866
C          8.63531       15.07763       66.68393
O          8.19746       14.50608       67.66849
C          8.73752       17.35784       67.76036
C          7.46964       17.87902       67.13319
O          6.28877       17.68243       67.75002
O          7.50141       18.51468       66.09234
H          9.73736       17.84760       65.42025
H         10.37561       16.00758       67.53730
H          9.40759       18.21466       67.98715
H          8.47007       16.89014       68.72715
N          8.29425       14.62134       65.44491
C          7.32232       13.54973       65.25081
C          7.92448       12.37957       64.48919
O          8.52080       12.63546       63.45191
C          6.09290       14.11903       64.51176
C          5.49436       15.30463       65.29022
C          4.05308       15.60839       64.87231
C          3.44654       16.69299       65.77659
N          2.03406       16.90690       65.46680
H          8.65490       15.08976       64.60181
H          6.94205       13.19087       66.22019
H          5.34198       13.30826       64.45249
H          6.33184       14.43855       63.47412
H          6.14022       16.20066       65.17516
H          5.48268       15.05189       66.36349
H          3.45036       14.68089       64.99344
H          4.01681       15.92374       63.80749
H          4.00847       17.64491       65.65465
H          3.52917       16.37885       66.84057
H          1.92655       17.23786       64.48130
H          1.49964       16.01739       65.60288
H          1.64779       17.62940       66.11667
N          7.78382       11.05806       64.84403
C          7.02296       10.49218       65.96376
C          5.59355       11.01179       65.99527
O          5.19106       11.56053       67.00918
C          7.76161       10.66060       67.31800
C          9.05951        9.89769       67.38840
O          9.47366        9.25842       66.43380
O          9.75233        9.87455       68.54113
H          8.19429       10.36327       64.20034
H          6.93928        9.39184       65.81194
H          7.11519       10.23903       68.11956
H          7.94988       11.72631       67.55363
N          4.73211       10.88338       64.94851
C          5.04603       10.16601       63.72126
C          3.89236       10.17331       62.73307
O          2.89976       10.84793       62.96610
H          3.79768       11.30115       65.06647
H          5.26453        9.11221       63.99845
H          5.92471       10.61338       63.21716
N          3.89851        9.40796       61.60576
C          4.95795        8.47957       61.23363
C          4.52972        7.08917       61.64104
O          3.45170        6.65518       61.25651
C          5.31520        8.56870       59.73140
C          4.19723        8.21072       58.78244
O          4.31036        7.24317       58.04675
O          3.08985        8.97191       58.70126
H          3.03113        9.40187       61.05105
H          5.89846        8.72259       61.77171
H          6.16353        7.86972       59.55302
H          5.67092        9.59343       59.49187
N          5.32468        6.33398       62.44805
C          4.90731        5.04169       62.95234
C          3.84712        5.22610       64.01140
O          2.73430        4.74505       63.86086
H          6.25823        6.68253       62.71668
H          5.77164        4.53936       63.44090
H          4.57039        4.39621       62.11266
N          4.17848        5.89191       65.15005
C          3.30674        6.08929       66.30461
C          3.26604        7.56622       66.67894
O          4.29853        8.21881       66.60797
C          3.80498        5.22016       67.49281
C          5.31357        5.32009       67.77163
O          3.46213        3.87111       67.29037
H          5.14741        6.24058       65.22527
H          2.26453        5.75777       66.10063
H          3.25389        5.55676       68.39874
H          3.89494        3.56705       66.45049
H          5.89806        4.87961       66.93618
H          5.63187        6.36986       67.88748
H          5.56307        4.75104       68.69207
N          2.09762        8.16295       67.08174
C          1.98591        9.60397       67.34405
C          2.48399       10.03655       68.74103
O          1.90550       10.95126       69.30816
C          0.55048       10.15246       67.01359
C         -0.53088        9.67310       68.02721
C          0.15808        9.80232       65.56317
C         -1.90145       10.32086       67.80752
H          1.24282        7.58861       67.08693
H          2.64834       10.11000       66.61482
H          0.60490       11.26304       67.07812
H         -0.23032        9.95092       69.05605
H         -0.64241        8.56996       68.00053
H          0.93728       10.15411       64.85631
H          0.02760        8.70723       65.43456
H         -0.78922       10.29947       65.27229
H         -1.81507       11.42872       67.83096
H         -2.35008       10.00527       66.84479
H         -2.59296       10.00735       68.61814
N          3.56220        9.45452       69.34540
C          4.10832        9.85598       70.64742
C          5.07734       11.03132       70.48917
O          6.27286       10.87251       70.68474
C          4.72449        8.62933       71.39551
C          5.88702        7.91803       70.68455
O          3.71903        7.67546       71.62735
H          3.99251        8.65372       68.88515
H          3.28465       10.19244       71.31682
H          5.12951        8.98517       72.37247
H          3.22724        7.96074       72.44117
H          5.55683        7.46848       69.73902
H          6.74221        8.58387       70.47228
H          6.25994        7.08976       71.32268
N          4.61515       12.26322       70.13349
C          5.48864       13.39620       69.82466
C          6.38832       13.81467       70.98984
O          6.22224       13.31849       72.09559
C          4.64305       14.59401       69.28968
C          3.75531       15.22855       70.36483
O          3.79346       14.18019       68.24924
H          3.60351       12.38461       70.01952
H          6.15908       13.06234       69.00259
H          5.32355       15.38755       68.91106
H          4.34471       13.72025       67.57326
H          3.01699       14.49846       70.75584
H          4.35785       15.61382       71.20966
H          3.19640       16.07984       69.91931
N          7.39162       14.72143       70.78259
C          8.31786       15.18300       71.81631
C          9.76995       14.77586       71.53089
O         10.61841       15.04931       72.36881
C          8.27211       16.72496       71.90463
C          6.85969       17.30185       72.06376
C          6.91555       18.83476       72.09252
C          5.51445       19.44913       72.18950
N          5.59141       20.90982       72.22252
H          7.50228       15.11207       69.84141
H          8.03070       14.74836       72.79826
H          8.70336       17.14467       70.97097
H          8.90769       17.06278       72.75260
H          6.39625       16.91692       72.99766
H          6.24047       16.99498       71.19463
H          7.39890       19.20171       71.15927
H          7.52496       19.16314       72.96240
H          5.01048       19.08656       73.11238
H          4.90932       19.13375       71.30979
H          6.05175       21.26710       71.35361
H          4.62498       21.30429       72.27953
H          6.13419       21.22131       73.06074
N         10.14265       14.15638       70.37057
C         11.52311       13.79731       70.04109
C         12.42145       15.02594       70.03670
O         12.13760       15.97161       69.31545
C         11.56355       13.12241       68.64447
C         12.95528       12.67379       68.15650
C         13.55267       11.55871       68.97107
O         13.79202       10.48396       68.44484
O         13.87228       11.74332       70.26500
H          9.41996       13.92897       69.67965
H         11.87876       13.06844       70.79699
H         11.17390       13.84513       67.89694
H         10.88545       12.24401       68.63828
H         13.65849       13.53298       68.13513
H         12.83671       12.31586       67.10953
N         13.54963       15.05697       70.80140
C         14.47646       16.17224       70.81642
H         15.47114       15.82737       70.46186
H         14.14799       17.00931       70.16490
H         14.57883       16.55354       71.85332
H         13.78489       14.24259       71.38732
Ca        11.59232        8.56796       68.65911
O         11.47159        9.35671       71.56127
H         12.36412        9.65914       71.25810
H         11.66228        8.60698       72.17898
O         10.69115        6.00962       67.14468
H         10.73538        6.04485       66.15617
H         10.48405        5.06387       67.35187
O          9.08700        7.24071       69.97151
H          9.07098        7.32643       70.95786
H          9.14821        6.26673       69.80624

Ca 1.0



