%chk=apoCaM-CA-Ng.loop3.water4.frame202.chk
%nprocshared=20
%mem=10GB
%nosave
#b3lyp/svp scf=(tight,noincore,xqc) Test 
#IOP(5/87=12) Density=Current Pop=(MK,readradii) iop(6/33=2) iop(6/42=6)

apoCaM-CA-Ng.loop3.water4.frame202 

   0  1 
C         19.26817       30.43092        8.87466
C         19.59727       30.63053        7.42588
O         19.88226       31.75159        7.03126
H         18.24252       30.02260        8.97939
H         19.99494       29.71778        9.31935
H         19.33612       31.39144        9.43024
N         19.59095       29.56648        6.57012
C         20.00570       29.63986        5.17034
C         19.12584       30.54062        4.31380
O         19.50680       30.79200        3.17819
C         21.49773       30.03935        5.07520
C         22.36364       29.04180        5.79376
O         23.12347       29.42900        6.83300
O         22.38051       27.87375        5.43869
H         19.32686       28.64069        6.94044
H         19.92599       28.62662        4.71683
H         21.66285       31.05347        5.49367
H         21.82059       30.06165        4.01189
N         17.90681       30.99425        4.73480
C         17.05374       31.83346        3.90000
C         16.69166       33.08736        4.65414
O         15.51678       33.38104        4.83878
C         15.80506       31.05426        3.44911
C         16.19093       29.84235        2.59562
C         14.95259       29.17413        1.99737
C         15.35928       28.01571        1.07993
N         14.18977       27.43596        0.42332
H         17.54252       30.71245        5.65666
H         17.58821       32.15837        2.97980
H         15.18224       31.73651        2.82760
H         15.20620       30.72696        4.32808
H         16.75954       29.11001        3.21012
H         16.83862       30.18876        1.76030
H         14.39712       29.92764        1.39683
H         14.28833       28.80243        2.80856
H         15.88339       27.23412        1.67408
H         16.05874       28.39148        0.29965
H         14.50110       26.65896       -0.20286
H         13.52494       27.05835        1.13636
H         13.71117       28.16342       -0.15695
N         17.68051       33.89014        5.12403
C         17.40146       35.10140        5.87666
C         17.21454       36.26248        4.90173
O         17.44874       36.08709        3.71289
C         18.52144       35.25945        6.93309
C         18.23920       36.24646        8.02169
O         18.04090       35.81649        9.28080
O         18.25016       37.43888        7.79638
H         18.66332       33.61818        4.95934
H         16.45296       34.95490        6.44113
H         19.49980       35.48090        6.45225
H         18.61542       34.27487        7.44114
N         16.77288       37.47487        5.32793
C         16.58920       38.62434        4.46146
C         17.74814       39.57634        4.62556
O         18.36391       39.93227        3.63084
H         16.54137       37.60548        6.31655
H         15.63105       39.11874        4.73156
H         16.51223       38.32733        3.39214
N         18.13506       39.99383        5.86347
C         19.27362       40.88036        6.09068
C         20.58318       40.12778        6.35857
O         21.58517       40.77521        6.62917
C         18.93340       41.89036        7.20708
C         18.78323       41.32038        8.63691
N         19.68464       41.99951        9.55383
O         19.00742       39.94341        8.70952
H         17.62236       39.63286        6.67951
H         19.44757       41.49142        5.17784
H         17.98852       42.41624        6.94874
H         19.72619       42.67028        7.20762
H         19.40090       43.00234        9.62745
H         19.54960       41.56437       10.48663
N         20.66548       38.77088        6.25105
C         21.89101       38.00632        6.43221
C         22.37939       37.97320        7.86716
O         23.55131       38.21877        8.11000
H         19.83398       38.23628        5.96528
H         22.68230       38.36843        5.73898
H         21.67215       36.95130        6.15604
N         21.52674       37.59705        8.85816
C         21.89684       37.33688       10.24575
C         21.13616       38.23256       11.19728
O         19.91431       38.22406       11.15905
C         21.48384       35.88950       10.59256
C         22.36577       34.84553        9.97658
C         23.67550       34.69392       10.45369
C         21.88885       33.98504        8.97463
C         24.49754       33.68874        9.94673
C         22.72078       32.98619        8.45759
C         24.02645       32.83240        8.94904
O         24.83671       31.86573        8.47719
H         20.54789       37.43515        8.60127
H         22.98654       37.47128       10.41981
H         20.42855       35.74207       10.27827
H         21.51565       35.72223       11.69243
H         24.04947       35.33974       11.23868
H         20.87908       34.08546        8.59651
H         25.49969       33.57038       10.33727
H         22.35050       32.32707        7.68453
H         24.55546       31.25150        7.78734
N         21.79579       38.97130       12.14114
C         21.09530       39.66627       13.21622
C         21.16261       41.15500       12.96461
O         20.11324       41.73226       12.74827
C         21.63097       39.23546       14.61693
C         21.70933       37.69302       14.79095
C         20.78588       39.84344       15.75440
C         20.36943       36.95663       14.70199
H         22.82658       39.00283       12.13164
H         20.02192       39.38690       13.19709
H         22.67269       39.61053       14.72155
H         22.15974       37.46800       15.78281
H         22.39033       37.27089       14.02164
H         20.78920       40.94041       15.71956
H         19.72542       39.52459       15.68850
H         21.19336       39.54312       16.74290
H         20.53972       35.86754       14.83294
H         19.67033       37.28440       15.49759
H         19.90200       37.11648       13.71348
N         22.33478       41.85183       12.92385
C         22.37315       43.26565       12.53215
C         21.60787       44.19814       13.47533
O         21.39760       45.34485       13.10993
C         23.82320       43.75412       12.38614
O         24.53682       42.94307       11.49115
H         23.21696       41.34687       13.10098
H         21.88687       43.33595       11.53237
H         24.32764       43.71443       13.37529
H         23.85474       44.81138       12.03805
H         24.15196       43.10324       10.59022
N         21.14818       43.77202       14.68588
C         20.33936       44.55947       15.61246
C         18.99784       44.96004       15.00750
O         18.48494       46.02507       15.33373
C         21.13116       45.75091       16.16727
H         21.37464       42.82202       14.98480
H         20.10497       43.90016       16.47864
H         21.37986       46.47718       15.36671
H         20.54032       46.27517       16.94840
H         22.07428       45.39110       16.63050
N         18.36231       44.13968       14.12469
C         17.05904       44.40981       13.53508
C         16.13272       43.22527       13.73065
O         16.58858       42.16512       14.14471
C         17.22467       44.68071       12.03716
H         18.82941       43.27318       13.84489
H         16.60271       45.30553       14.01080
H         16.24479       44.90546       11.56559
H         17.89529       45.55271       11.88423
H         17.67144       43.79738       11.52998
N         14.79917       43.34106       13.47069
C         13.83529       42.24509       13.56845
C         13.76577       41.60084       14.95624
O         13.04673       40.62015       15.09593
C         14.09911       41.18163       12.47174
C         14.05575       41.80066       11.06340
C         14.12609       40.75239        9.99084
O         15.01604       40.78380        9.15712
O         13.17676       39.79951        9.91481
H         14.43733       44.26068       13.17142
H         12.82111       42.65084       13.35617
H         13.29653       40.41343       12.53759
H         15.06941       40.67044       12.62929
H         14.89775       42.51792       10.94500
H         13.10059       42.35073       10.92831
N         14.45447       42.08213       16.03252
C         14.42718       41.42083       17.31855
H         15.05444       41.98129       18.04452
H         13.38765       41.37176       17.70353
H         14.83950       40.39341       17.22016
H         15.01797       42.93868       15.96387
Ca        17.18642       39.08122        9.78613
O         14.97549       37.42378        8.49431
H         15.02253       36.52722        8.07732
H         14.55170       37.99852        7.80859
O         17.87456       36.43815       12.15829
H         18.69380       35.91816       11.96428
H         17.41619       35.91665       12.86277
O         15.04615       37.16935       11.58747
H         14.18887       37.33000       11.11994
H         15.01639       36.21094       11.83478
O         17.82815       40.19219       12.25290
H         17.28886       39.92039       13.03612
H         17.42234       41.03578       11.93029

Ca 1.0



