%chk=apoCaM-CA-Ng.loop2.water6.frame234.chk
%nprocshared=20
%mem=10GB
%nosave
#b3lyp/svp scf=(tight,noincore,xqc) Test 
#IOP(5/87=12) Density=Current Pop=(MK,readradii) iop(6/33=2) iop(6/42=6)

apoCaM-CA-Ng.loop2.water6.frame234 

   -2  1 
C         24.60728       10.69187      106.42764
C         25.14787       10.15524      107.71948
O         26.03202       10.77002      108.29877
H         23.52629       10.91504      106.54375
H         25.13685       11.62370      106.13502
H         24.74057        9.93906      105.62194
N         24.66982        8.98194      108.21791
C         25.14162        8.37867      109.45691
C         25.92219        7.13010      109.10242
O         25.53439        6.03016      109.47654
C         23.92853        8.11189      110.38126
C         24.28521        7.55011      111.73708
O         23.30106        7.26796      112.61134
O         25.44620        7.34918      112.05940
H         23.95545        8.47189      107.67389
H         25.83749        9.06039      109.99372
H         23.23248        7.40613      109.87647
H         23.38884        9.06869      110.54833
N         27.05424        7.24742      108.35134
C         27.85422        6.10864      107.92727
C         27.82987        5.98897      106.42198
O         27.31127        6.87549      105.75246
C         29.28682        6.26202      108.43926
H         27.35182        8.18824      108.04659
H         27.42946        5.16674      108.33822
H         29.90690        5.39088      108.14085
H         29.74587        7.18697      108.02696
H         29.28394        6.32998      109.54773
N         28.29995        4.85945      105.82480
C         28.16707        4.61567      104.39790
C         29.45667        4.05332      103.83669
O         29.92451        3.05020      104.36276
C         27.01181        3.61538      104.18399
C         26.52853        3.58006      102.75911
O         27.04867        4.41590      101.83891
O         25.58980        2.86119      102.45882
H         28.64755        4.09335      106.42424
H         27.88892        5.55834      103.87672
H         26.13867        3.94722      104.78769
H         27.30389        2.60120      104.53571
N         30.05670        4.59615      102.73793
C         31.23415        3.99598      102.12602
C         32.39998        4.93634      101.92498
O         33.43311        4.44020      101.50078
H         29.61613        5.40560      102.27631
H         30.95346        3.59595      101.12786
H         31.60251        3.13862      102.72919
N         32.32657        6.28612      102.14175
C         33.45467        7.17821      101.87015
C         33.82743        8.00336      103.08990
O         33.12135        7.99966      104.08720
C         33.10810        8.13037      100.69891
C         32.88653        7.44416       99.36948
N         32.59177        8.18489       98.27651
O         32.98550        6.23126       99.26172
H         31.44405        6.71047      102.45816
H         34.35966        6.59587      101.59176
H         33.94153        8.84843      100.54515
H         32.19657        8.70973      100.95965
H         32.51189        9.21034       98.34207
H         32.44927        7.73330       97.36080
N         34.96618        8.75227      103.04167
C         35.41473        9.66469      104.08123
C         35.59242       11.04824      103.49519
O         35.27358       11.24850      102.32995
H         35.56174        8.68082      102.20291
H         36.39807        9.31042      104.45537
H         34.70481        9.70917      104.93491
N         36.12543       12.06321      104.23889
C         36.32271       13.39426      103.66008
C         34.99196       14.02154      103.26169
O         34.98550       14.87751      102.38743
C         37.15867       14.34098      104.55909
C         36.46093       14.74688      105.86433
O         38.42483       13.78448      104.81814
H         36.41563       11.86655      105.20706
H         36.92014       13.24543      102.73127
H         37.33081       15.28190      103.99097
H         38.32305       13.08508      105.51462
H         36.22255       13.86322      106.49117
H         37.11608       15.43251      106.44153
H         35.52961       15.29282      105.63454
N         33.82400       13.60220      103.83212
C         32.49800       14.01992      103.40237
C         31.79121       12.78236      102.88531
O         31.75580       11.77358      103.58001
C         31.69477       14.67700      104.56141
C         32.42140       15.89042      105.19545
C         30.28584       15.08851      104.08576
C         32.75698       17.03727      104.23430
H         33.86122       12.90525      104.59153
H         32.56254       14.76274      102.57772
H         31.56384       13.92669      105.37307
H         33.35909       15.53755      105.65931
H         31.79111       16.29582      106.01671
H         29.71270       14.20583      103.73479
H         29.71372       15.54324      104.92167
H         30.33825       15.81492      103.24811
H         33.44645       16.70298      103.43502
H         31.84231       17.46225      103.77473
H         33.26653       17.84764      104.79675
N         31.18526       12.80125      101.66970
C         30.46299       11.66112      101.12054
C         30.54270       11.64933       99.58497
O         29.83684       10.87415       98.95742
C         29.00933       11.73457      101.64504
C         28.20388       10.47080      101.47290
O         28.68230        9.47084      100.96185
O         26.94312       10.42986      101.94365
H         31.10866       13.71447      101.19604
H         30.90432       10.71642      101.50981
H         28.48587       12.59456      101.17418
H         29.04103       11.90817      102.74275
N         31.39483       12.48051       98.90840
C         31.43097       12.59585       97.45692
C         30.13477       13.23168       96.95813
O         29.80893       14.31173       97.43245
C         32.59369       13.52694       97.03381
C         32.65287       13.66526       95.53222
C         33.25415       12.66819       94.74751
C         32.06854       14.77866       94.90359
C         33.27472       12.78851       93.35417
C         32.07703       14.88667       93.51135
C         32.68225       13.89415       92.73679
H         32.06023       13.06340       99.43196
H         31.62349       11.59613       97.01393
H         33.57243       13.15966       97.41335
H         32.43081       14.52662       97.49581
H         33.70745       11.80272       95.21476
H         31.58483       15.55003       95.49021
H         33.74406       12.02156       92.75223
H         31.60965       15.73811       93.03393
H         32.68913       13.98103       91.65829
N         29.38348       12.68971       95.95179
C         28.26329       13.38016       95.32729
C         26.96544       13.27191       96.11631
O         25.94790       13.71090       95.59811
C         28.17986       12.70246       93.95705
C         28.53059       11.27127       94.29483
C         29.70564       11.46306       95.25012
H         28.47955       14.45749       95.14613
H         27.22942       12.86112       93.40442
H         29.01147       13.09864       93.32683
H         27.67121       10.84730       94.86116
H         28.74938       10.61601       93.42557
H         29.79266       10.58216       95.92106
H         30.65129       11.62028       94.68909
N         26.92117       12.76935       97.38419
C         25.70278       12.73592       98.18421
C         25.70460       13.85447       99.21878
O         24.73909       13.95496       99.96418
C         25.57540       11.37054       98.88590
C         25.50244       10.19041       97.91078
C         25.42532        8.89463       98.66966
O         24.39839        8.66049       99.50977
O         26.29445        8.04885       98.53108
H         27.79025       12.46833       97.84563
H         24.80413       12.89780       97.54840
H         24.65959       11.36585       99.51820
H         26.45740       11.23723       99.54286
H         26.40605       10.18164       97.26292
H         24.60337       10.28881       97.26571
N         26.72698       14.75419       99.31369
C         26.71363       15.83355      100.27522
H         27.63472       16.44564      100.16746
H         25.83274       16.48689      100.09807
H         26.67569       15.42323      101.30593
H         27.54041       14.69679       98.68735
Ca        26.00548        4.81492       99.88697
O         29.00279        6.51357       99.89438
H         28.23811        6.78943      100.45954
H         29.10609        7.24833       99.23904
O         25.92100        7.26652      102.54449
H         26.78808        7.70081      102.34848
H         25.72565        7.51355      103.48305
O         24.29306        2.55255       99.07247
H         24.52028        2.36302      100.01725
H         25.15052        2.45107       98.58730
O         23.67679        5.31750      102.08434
H         23.23275        6.12789      102.43984
H         22.93348        4.73167      101.79419
O         23.99491        5.86447       97.94542
H         23.10066        5.51843       98.19173
H         23.92535        6.07894       96.98160
O         27.83756        4.77510       97.67017
H         27.21474        4.42984       96.98245
H         28.58214        4.12311       97.68655

Ca 1.0



