%chk=apoCaM-CA-Ng.loop4.water7.frame522.chk
%nprocshared=20
%mem=10GB
%nosave
#b3lyp/svp scf=(tight,noincore,xqc) Test 
#IOP(5/87=12) Density=Current Pop=(MK,readradii) iop(6/33=2) iop(6/42=6)

apoCaM-CA-Ng.loop4.water7.frame522 

   -3  1 
C         90.88086      -12.33356       63.09668
C         91.67612      -13.55963       62.77434
O         91.09428      -14.62776       62.68137
H         89.80599      -12.58883       63.22351
H         91.25398      -11.88530       64.03919
H         90.97762      -11.59951       62.27057
N         93.02496      -13.47762       62.57361
C         93.88396      -14.62481       62.27094
C         93.53697      -15.29269       60.93902
O         94.09825      -16.34141       60.65463
C         93.82913      -15.66596       63.41747
C         94.08237      -15.04855       64.76313
O         93.13243      -15.12559       65.71549
O         95.13666      -14.48041       64.99859
H         93.47603      -12.55391       62.65841
H         94.93662      -14.26918       62.20312
H         94.58924      -16.45777       63.23928
H         92.83708      -16.16222       63.44140
N         92.61513      -14.76213       60.08033
C         92.14241      -15.45331       58.88379
C         93.29597      -15.66811       57.89931
O         93.94683      -14.68925       57.56258
C         90.96449      -14.67676       58.21524
C         89.75211      -14.62850       59.19173
C         90.54995      -15.34463       56.88409
C         88.58097      -13.78446       58.69359
H         92.20430      -13.84633       60.29673
H         91.71535      -16.40103       59.24203
H         91.30808      -13.64302       57.98798
H         90.05505      -14.18785       60.16142
H         89.39308      -15.66237       59.39375
H         91.39876      -15.37549       56.16988
H         90.19333      -16.38214       57.05713
H         89.75349      -14.76853       56.37481
H         88.13863      -14.20100       57.76767
H         87.78520      -13.77692       59.46823
H         88.91381      -12.74057       58.51461
N         93.63749      -16.89189       57.38260
C         92.90827      -18.13687       57.62100
C         93.57005      -18.98379       58.68691
O         92.89169      -19.83514       59.24172
C         92.63385      -18.91116       56.31141
C         93.84931      -19.45764       55.60234
O         93.70103      -20.07726       54.56132
O         95.09206      -19.29223       56.09417
H         94.47262      -16.93356       56.77851
H         91.89442      -17.92365       57.98557
H         92.09246      -18.23634       55.61223
H         91.96500      -19.76998       56.53984
N         94.87209      -18.79692       59.05429
C         95.53041      -19.59527       60.07140
C         95.58329      -21.05021       59.66691
O         96.13746      -21.36154       58.62196
H         95.43607      -18.06561       58.59897
H         94.99901      -19.46247       61.03903
H         96.57205      -19.23217       60.20431
N         95.02124      -22.00120       60.46387
C         95.01950      -23.43089       60.15026
C         94.17365      -23.80925       58.92585
O         94.14277      -24.98667       58.59503
C         94.57148      -24.24957       61.39159
C         93.19774      -23.93954       61.94009
O         92.50087      -23.05683       61.46609
O         92.74591      -24.63318       63.00167
H         94.61618      -21.68961       61.35947
H         96.06767      -23.74045       59.94083
H         95.29967      -24.06898       62.21166
H         94.61452      -25.33171       61.14133
N         93.46906      -22.89207       58.19973
C         92.64375      -23.22449       57.04878
C         91.37316      -23.97687       57.39793
O         90.63067      -24.28947       56.47932
H         93.53051      -21.90394       58.43672
H         93.24921      -23.80225       56.31692
H         92.32433      -22.28182       56.55401
N         91.04409      -24.29577       58.68636
C         89.86595      -25.05796       59.08840
C         88.55216      -24.31577       58.85303
O         87.51064      -24.91073       59.09370
C         89.85551      -26.45646       58.42948
C         91.18715      -27.20505       58.63106
C         91.19406      -28.57802       58.00560
N         92.32091      -29.32505       58.04385
O         90.19602      -29.02060       57.45480
H         91.67287      -24.02365       59.44478
H         89.93050      -25.22909       60.18787
H         89.65564      -26.36652       57.34211
H         89.03134      -27.05327       58.87981
H         91.40656      -27.30207       59.71661
H         92.00450      -26.62380       58.15589
H         93.17544      -28.96390       58.49309
H         92.34343      -30.26133       57.61362
N         88.51195      -23.00307       58.46972
C         87.26388      -22.25733       58.30022
C         87.04162      -21.27647       59.43537
O         86.03404      -20.58141       59.39214
C         87.24783      -21.45558       56.95811
C         88.32549      -20.34858       56.90399
C         87.36622      -22.36481       55.73474
H         89.39404      -22.48452       58.36930
H         86.39371      -22.95057       58.30726
H         86.25917      -20.94753       56.88369
H         88.21041      -19.74889       55.97681
H         88.22033      -19.64511       57.75770
H         89.35103      -20.76937       56.91861
H         88.34450      -22.88686       55.72272
H         86.54663      -23.11317       55.73485
H         87.27629      -21.75501       54.80880
N         87.93798      -21.11843       60.45331
C         87.83999      -20.01847       61.40006
C         87.53320      -20.52098       62.80393
O         87.52463      -21.72294       63.03563
C         89.12688      -19.17892       61.24701
C         89.11945      -17.88331       62.00466
N         90.10491      -17.60244       62.88265
O         88.22981      -17.06852       61.80849
H         88.75903      -21.73733       60.52920
H         86.98115      -19.36798       61.12640
H         89.23698      -18.91604       60.17144
H         90.00547      -19.79925       61.53166
H         90.88214      -18.26240       63.02806
H         90.09255      -16.72488       63.41796
N         87.12237      -19.63374       63.75369
C         86.56749      -20.02792       65.05020
C         85.87952      -18.85349       65.74420
O         85.95613      -17.72888       65.26498
C         87.61988      -20.66212       65.99666
C         88.68633      -19.68930       66.44809
C         88.69592      -19.20520       67.76959
C         89.68523      -19.26647       65.56157
C         89.68068      -18.30395       68.18689
C         90.67606      -18.37313       65.98403
C         90.67559      -17.88643       67.29250
O         91.63707      -17.02406       67.67658
H         87.08556      -18.64498       63.47619
H         85.76968      -20.77809       64.85182
H         88.09630      -21.55707       65.54561
H         87.07534      -21.03340       66.89024
H         87.93585      -19.51556       68.47564
H         89.70199      -19.64366       64.54954
H         89.67089      -17.93395       69.20431
H         91.45050      -18.05673       65.29820
H         91.67523      -16.66055       68.57130
N         85.17759      -19.05341       66.89635
C         84.52589      -17.97338       67.62223
C         85.15252      -17.88234       69.00424
O         84.96810      -18.81359       69.77652
C         83.01114      -18.24289       67.74136
C         82.32321      -18.35861       66.37392
C         80.86511      -18.67920       66.54244
O         80.01278      -17.91889       66.11261
O         80.49128      -19.81785       67.15860
H         85.10745      -20.00620       67.28475
H         84.65166      -17.02222       67.07588
H         82.53570      -17.41669       68.31562
H         82.85623      -19.19285       68.29999
H         82.78626      -19.17451       65.77896
H         82.44268      -17.40280       65.81793
N         85.95366      -16.85333       69.41297
C         86.38145      -15.72983       68.57883
C         85.23688      -14.80966       68.18325
O         84.12580      -14.97300       68.66891
C         87.50554      -14.93080       69.28640
C         87.06096      -14.23876       70.59403
C         88.18925      -13.52441       71.29003
O         87.94780      -12.88149       72.44793
O         89.32095      -13.52664       70.83201
H         86.35491      -16.94147       70.35852
H         86.82480      -16.15720       67.65172
H         87.89815      -14.15526       68.59573
H         88.33781      -15.63479       69.50926
H         86.65598      -14.98217       71.30905
H         86.26426      -13.49845       70.36975
N         85.45546      -13.81972       67.27083
C         84.42898      -12.90729       66.81008
H         83.44728      -13.09298       67.29321
H         84.73929      -11.86428       67.02897
H         84.30623      -13.02023       65.71205
H         86.39565      -13.71165       66.86158
Ca        93.42454      -14.22159       67.76322
O         92.39294      -11.47460       66.68132
H         91.51864      -11.08741       66.42535
H         92.78731      -10.80773       67.29772
O         94.44167      -16.52785       69.50267
H         94.62926      -17.48758       69.34921
H         95.33099      -16.09309       69.48314
O         90.34372      -14.12354       67.45091
H         89.94736      -13.23167       67.28434
H         89.86618      -14.72862       66.82934
O         91.74271      -15.52326       71.05142
H         92.34289      -16.18459       71.47856
H         90.90646      -16.02358       70.87530
O         94.86794      -13.35553       70.39422
H         94.67598      -12.39014       70.50142
H         94.69160      -13.74581       71.28669
O         95.61819      -12.10607       67.66488
H         96.02017      -12.68863       66.97280
H         95.37806      -11.27577       67.18257
O         91.93175      -11.98012       69.75901
H         91.88380      -12.93145       70.02828
H         91.21346      -11.53709       70.27649

Ca 1.0



