%chk=apoCaM-CA-Ng.loop3.water3.frame509.chk
%nprocshared=20
%mem=10GB
%nosave
#b3lyp/svp scf=(tight,noincore,xqc) Test 
#IOP(5/87=12) Density=Current Pop=(MK,readradii) iop(6/33=2) iop(6/42=6)

apoCaM-CA-Ng.loop3.water3.frame509 

   0  1 
C         85.57682       46.71220       53.96785
C         85.78018       45.42171       54.70197
O         84.90243       44.57034       54.67502
H         85.62952       47.55936       54.68337
H         86.37126       46.83155       53.20152
H         84.58704       46.72806       53.46412
N         86.93882       45.20681       55.38358
C         87.21217       43.97332       56.11042
C         86.19409       43.81324       57.22923
O         86.09986       44.69348       58.07431
C         88.65660       44.00249       56.65433
C         89.12358       42.69045       57.21680
O         90.26159       42.59706       57.64728
O         88.32271       41.60816       57.22349
H         87.65666       45.94883       55.36544
H         87.14434       43.12882       55.38785
H         88.75564       44.79841       57.42468
H         89.34124       44.24486       55.81485
N         85.36326       42.73093       57.26555
C         84.27608       42.59845       58.23628
C         84.77620       42.56951       59.67575
O         83.99053       42.84991       60.57058
C         83.44403       41.33460       57.91412
C         82.11942       41.22530       58.68991
C         81.36643       39.95169       58.27047
C         79.99702       39.77781       58.94402
N         79.04536       40.81680       58.54680
H         85.47208       42.00887       56.53672
H         83.62893       43.49468       58.10449
H         84.07098       40.43297       58.09356
H         83.18298       41.36517       56.83269
H         81.51349       42.12501       58.45703
H         82.30163       41.18170       59.78367
H         81.98844       39.07784       58.55644
H         81.22261       39.94064       57.16750
H         80.11091       39.76624       60.05011
H         79.59092       38.78957       58.63093
H         78.95465       40.84384       57.50485
H         78.11037       40.59383       58.95790
H         79.34487       41.75080       58.90450
N         86.05859       42.21393       59.97570
C         86.58775       42.17134       61.33206
C         87.80303       43.07765       61.48568
O         87.78162       43.91908       62.37336
C         86.84127       40.71465       61.80849
C         87.69428       39.78197       60.98233
O         88.14304       40.09545       59.89530
O         87.92292       38.53905       61.44583
H         86.68257       41.93488       59.20958
H         85.83116       42.55110       62.05670
H         85.85247       40.21467       61.89687
H         87.27839       40.76856       62.82980
N         88.90175       42.95754       60.68555
C         90.13142       43.71305       60.88200
C         91.29863       42.80327       61.23856
O         92.36059       43.32644       61.54563
H         88.88637       42.28930       59.91209
H         90.01572       44.43469       61.71903
H         90.36420       44.29785       59.96672
N         91.17289       41.44213       61.25916
C         92.18378       40.52200       61.76174
C         92.62226       39.53517       60.69744
O         91.77892       38.96901       60.02031
C         91.56407       39.70438       62.91371
C         91.11583       40.56713       64.06342
N         92.01069       41.28961       64.77538
O         89.93226       40.60051       64.36566
H         90.29057       41.00722       60.96690
H         93.07479       41.06135       62.15143
H         92.30323       38.96676       63.29492
H         90.68834       39.13782       62.52115
H         93.01435       41.26106       64.54514
H         91.70008       41.86912       65.56884
N         93.93033       39.17031       60.60368
C         94.39216       38.06981       59.77321
C         94.28573       38.35886       58.29958
O         94.88390       39.32617       57.84933
H         94.61927       39.61765       61.22768
H         93.83432       37.14641       60.04417
H         95.46533       37.88410       59.99379
N         93.58175       37.52842       57.47348
C         93.56932       37.69369       56.02424
C         92.39219       38.59358       55.58197
O         92.42806       39.79585       56.28565
C         93.49611       36.32177       55.30991
C         94.68756       35.42926       55.56898
C         95.98078       35.83319       55.19037
C         94.51128       34.16274       56.15139
C         97.07481       34.98543       55.39183
C         95.60642       33.31560       56.34877
C         96.89245       33.72408       55.96741
O         97.95560       32.91308       56.14216
H         93.10498       36.70820       57.87908
H         94.51091       38.19390       55.70451
H         93.45309       36.47143       54.21006
H         92.55552       35.81302       55.61019
H         96.14412       36.79833       54.72826
H         93.52509       33.82360       56.44225
H         98.06473       35.30586       55.09123
H         95.45283       32.33936       56.79111
H         97.87079       32.02770       56.52410
N         92.45495       38.81051       54.12429
C         91.61945       39.84419       53.48107
C         90.12638       39.60483       53.67711
O         89.62213       39.75446       54.78026
C         91.99646       41.32706       53.84111
C         91.24847       42.29493       52.87818
C         93.52000       41.56334       53.77160
C         91.43867       43.77830       53.19796
H         93.44286       38.91161       53.79446
H         91.84300       39.73743       52.39546
H         91.66498       41.55473       54.87567
H         90.15629       42.10231       52.93511
H         91.57501       42.10952       51.83094
H         93.90494       41.35804       52.75049
H         93.78115       42.60075       54.05762
H         94.05745       40.92185       54.49880
H         92.49377       44.09434       53.08130
H         90.83235       44.38360       52.49119
H         91.09957       43.99322       54.23135
N         89.34732       39.34497       52.59095
C         87.89108       39.40258       52.60025
C         87.19721       38.37869       53.48081
O         86.37152       38.78996       54.28125
C         87.34381       39.29830       51.16240
O         87.61945       38.04534       50.58990
H         89.81493       39.22735       51.67901
H         87.59627       40.41705       52.95521
H         87.76704       40.12447       50.54341
H         86.24542       39.45125       51.16457
H         88.32771       38.17756       49.90784
N         87.39197       37.03764       53.32218
C         86.48917       36.03826       53.89486
C         86.36823       36.12365       55.41029
O         87.35693       35.87494       56.08335
C         86.93854       34.62433       53.50266
H         88.13535       36.72226       52.68062
H         85.50494       36.20802       53.42424
H         86.22029       33.86974       53.88914
H         86.98939       34.52916       52.39774
H         87.94550       34.40604       53.92228
N         85.20784       36.46262       56.05535
C         83.96260       36.87544       55.40495
C         83.29848       35.75096       54.62198
O         83.42150       34.60797       55.03894
C         82.97070       37.39292       56.44394
H         85.24106       36.49222       57.08745
H         84.21161       37.72754       54.75207
H         83.43858       38.23275       56.99587
H         82.05064       37.76748       55.94997
H         82.69208       36.59193       57.16150
N         82.59200       35.95512       53.46540
C         82.34107       37.24970       52.83390
C         83.18112       37.35257       51.58365
O         84.00404       38.25324       51.50397
C         80.84790       37.44608       52.49317
C         79.95219       37.51520       53.73643
C         78.52737       37.79877       53.34827
O         77.91402       37.01950       52.63614
O         77.91998       38.91945       53.78436
H         82.23398       35.11945       52.97605
H         82.61800       38.09505       53.49018
H         80.49561       36.63079       51.82420
H         80.74356       38.41177       51.94791
H         80.30721       38.33526       54.39702
H         79.99608       36.55796       54.29795
N         83.04180       36.46239       50.56416
C         83.85283       36.54076       49.36977
H         84.92664       36.43675       49.63604
H         83.57707       35.72372       48.67054
H         83.68957       37.51610       48.86379
H         82.34662       35.70469       50.63456
Ca        90.54725       39.66797       57.56423
O         90.12421       36.67185       56.59434
H         89.56497       37.34909       56.13764
H         90.07659       35.87488       56.00916
O         86.99355       38.92488       57.26784
H         86.53854       38.51026       58.04288
H         86.34217       39.58702       56.92545
O         90.07662       36.71064       59.61991
H         89.54925       37.51249       59.37499
H         90.37813       36.88374       60.54726

Ca 1.0



