%chk=apoCaM-CA-Ng.loop2.water4.frame291.chk
%nprocshared=20
%mem=10GB
%nosave
#b3lyp/svp scf=(tight,noincore,xqc) Test 
#IOP(5/87=12) Density=Current Pop=(MK,readradii) iop(6/33=2) iop(6/42=6)

apoCaM-CA-Ng.loop2.water4.frame291 

   -2  1 
C         54.43056       56.13331       44.41330
C         55.02991       57.16751       45.31928
O         56.01366       56.86812       45.97682
H         53.54341       56.52875       43.87590
H         55.18499       55.80640       43.66808
H         54.11334       55.25712       45.01828
N         54.49247       58.41655       45.40443
C         55.00302       59.43947       46.31085
C         54.78956       58.99509       47.74822
O         53.66035       58.69415       48.11272
C         54.28645       60.78147       46.05107
C         54.84417       61.89163       46.89994
O         54.04416       62.55387       47.75676
O         56.02048       62.20611       46.80738
H         53.68635       58.64517       44.80193
H         56.08477       59.59932       46.10083
H         53.19660       60.67286       46.24372
H         54.42243       61.06594       44.98467
N         55.82976       58.94621       48.62790
C         55.66015       58.50381       50.00844
C         55.33052       57.02277       50.08716
O         54.71595       56.61344       51.06158
C         56.92572       58.77281       50.82717
H         56.76128       59.25703       48.31118
H         54.83995       59.09776       50.47237
H         56.77066       58.46786       51.88500
H         57.78821       58.20866       50.41237
H         57.16312       59.85779       50.80993
N         55.77790       56.15197       49.13008
C         55.55702       54.70713       49.13258
C         56.31683       53.99976       50.25777
O         56.17730       52.79128       50.38815
C         54.03853       54.39777       49.11182
C         53.74326       52.94012       48.88090
O         53.03949       52.24066       49.79153
O         54.12925       52.38730       47.86297
H         56.32207       56.52824       48.34465
H         55.97870       54.30396       48.18420
H         53.56969       54.96698       48.27931
H         53.56026       54.71549       50.06051
N         57.18123       54.66759       51.07904
C         57.91644       54.02933       52.15563
C         58.98003       53.03718       51.71519
O         59.61209       52.48929       52.60739
H         57.32284       55.68004       50.97502
H         57.19451       53.52926       52.83769
H         58.43947       54.81765       52.74091
N         59.25484       52.74491       50.40353
C         60.28316       51.78180       50.01160
C         61.30176       52.43788       49.09188
O         60.93942       52.88081       48.01019
C         59.63381       50.56541       49.32697
C         60.65532       49.48103       49.07006
N         60.91417       49.04726       47.81642
O         61.25670       48.98762       50.01275
H         58.72151       53.20143       49.65095
H         60.80492       51.40131       50.91648
H         59.13827       50.88555       48.38336
H         58.85101       50.14406       49.99441
H         60.41508       49.43914       47.01005
H         61.61812       48.31296       47.65135
N         62.60416       52.54407       49.47488
C         63.62912       53.17705       48.66204
C         64.03121       52.33388       47.47410
O         64.47813       51.21557       47.68988
H         62.87878       52.20411       50.40936
H         64.54725       53.28543       49.28039
H         63.30413       54.19749       48.36819
N         63.96714       52.82395       46.19750
C         64.51924       52.10285       45.04572
C         63.46770       51.65399       44.04076
O         63.81918       50.87453       43.16571
C         65.63734       52.93477       44.35905
C         65.14076       54.23722       43.70447
O         66.67528       53.20813       45.26773
H         63.56450       53.76111       46.05106
H         64.99145       51.16053       45.39978
H         66.07238       52.31709       43.54295
H         66.34599       53.88692       45.91357
H         64.70610       54.93242       44.45143
H         65.98883       54.75208       43.20549
H         64.37645       54.01892       42.93493
N         62.17221       52.07517       44.09508
C         61.12177       51.54500       43.22211
C         60.01404       50.95292       44.07540
O         60.06110       51.09007       45.28900
C         60.59705       52.62815       42.22953
C         60.08275       53.89748       42.95881
C         61.69521       52.95763       41.20239
C         59.45544       54.93223       42.02139
H         61.90142       52.77369       44.80116
H         61.51124       50.69859       42.61444
H         59.75376       52.18760       41.65442
H         60.91304       54.39040       43.50820
H         59.30340       53.59980       43.69244
H         62.03112       52.02883       40.69292
H         61.31980       53.63392       40.40901
H         62.56772       53.42917       41.69188
H         59.07652       55.78802       42.61889
H         60.19923       55.33495       41.30418
H         58.60699       54.48422       41.46277
N         58.97854       50.27372       43.50197
C         57.88651       49.69246       44.27582
C         57.73145       48.18562       44.00728
O         56.78945       47.59481       44.51660
C         56.60985       50.49505       43.95143
C         55.49407       50.31563       44.95048
O         55.63811       49.52740       46.03474
O         54.45870       50.94536       44.80627
H         58.94095       50.19187       42.47446
H         58.07919       49.82570       45.36299
H         56.26663       50.25700       42.92112
H         56.86275       51.57795       43.99132
N         58.63830       47.48028       43.26148
C         58.52440       46.03987       43.02274
C         57.35725       45.75914       42.08544
O         57.37374       46.30051       40.99002
C         59.84884       45.49208       42.43140
C         59.86719       43.98028       42.28585
C         60.68782       43.20402       43.12565
C         59.08584       43.32674       41.31234
C         60.71266       41.81076       43.00467
C         59.11587       41.93420       41.19409
C         59.92622       41.17639       42.04099
H         59.46959       47.96371       42.89226
H         58.40590       45.54446       44.00807
H         60.65208       45.79029       43.14140
H         60.08667       45.96414       41.45335
H         61.30426       43.67383       43.88164
H         58.45808       43.88512       40.63368
H         61.34243       41.22210       43.65918
H         58.51143       41.44250       40.44258
H         59.94759       40.09814       41.94781
N         56.33097       44.90217       42.39641
C         55.24140       44.56018       41.48226
C         54.32441       45.70093       41.05195
O         53.39882       45.43127       40.29888
C         54.41527       43.53955       42.27655
C         55.47555       42.85867       43.10707
C         56.30609       44.05091       43.57001
H         55.69833       44.08295       40.58593
H         53.75262       44.07642       42.99563
H         53.78905       42.86715       41.65141
H         55.09577       42.21362       43.92722
H         56.09546       42.23786       42.41857
H         55.81198       44.60042       44.40112
H         57.30095       43.66191       43.87220
N         54.48970       46.98036       41.49500
C         53.58686       48.07859       41.16337
C         54.28220       49.14900       40.33034
O         53.63104       50.12803       39.99071
C         53.07087       48.69110       42.47915
C         52.24565       47.69562       43.30974
C         51.97062       48.26024       44.67179
O         53.00894       48.51568       45.49028
O         50.82817       48.46792       45.04721
H         55.26822       47.20411       42.12792
H         52.72004       47.72411       40.56316
H         52.43972       49.58509       42.27848
H         53.95884       49.01686       43.05877
H         52.80385       46.74749       43.45953
H         51.29899       47.46850       42.77208
N         55.58394       49.03906       39.94005
C         56.23638       50.04771       39.13550
H         57.28794       49.74857       38.93600
H         55.70919       50.15640       38.16395
H         56.23868       51.01920       39.67283
H         56.14178       48.22121       40.20484
Ca        52.82087       49.37402       47.56853
O         50.84577       48.88921       49.77798
H         50.42317       48.81309       48.88552
H         50.98204       49.86180       49.90554
O         54.49216       46.72088       47.75926
H         54.56684       46.43295       46.81480
H         55.40554       46.61237       48.12559
O         50.80934       51.46662       46.79811
H         50.93741       52.40391       47.08975
H         51.46552       51.34291       46.06668
O         54.30812       48.76897       50.39436
H         54.94865       48.03629       50.57707
H         53.51902       48.55293       50.95211

Ca 1.0



