%chk=apoCaM-CA-Ng.loop2.water4.frame563.chk
%nprocshared=20
%mem=10GB
%nosave
#b3lyp/svp scf=(tight,noincore,xqc) Test 
#IOP(5/87=12) Density=Current Pop=(MK,readradii) iop(6/33=2) iop(6/42=6)

apoCaM-CA-Ng.loop2.water4.frame563 

   -2  1 
C         52.60320       33.36394       79.85765
C         51.62732       34.49540       79.72230
O         51.95491       35.61879       80.07717
H         53.56385       33.71758       80.28861
H         52.17811       32.58416       80.52446
H         52.80023       32.91964       78.85926
N         50.38761       34.25954       79.21270
C         49.37585       35.29817       79.05741
C         49.85960       36.36442       78.08991
O         50.18984       36.03980       76.95734
C         48.05482       34.67375       78.55118
C         46.90113       35.64476       78.46602
O         45.81380       35.24729       78.08069
O         47.03811       36.93742       78.82128
H         50.15448       33.29156       78.93906
H         49.16977       35.74154       80.05759
H         47.75395       33.86546       79.25313
H         48.21983       34.22142       77.54886
N         49.87964       37.67410       78.46643
C         50.26548       38.74892       77.55862
C         51.76303       38.71663       77.27143
O         52.49326       38.14642       78.07015
C         49.88911       40.09929       78.18938
H         49.54527       37.91540       79.41254
H         49.67559       38.63153       76.62998
H         48.79654       40.12196       78.39036
H         50.43038       40.24196       79.14874
H         50.12387       40.95842       77.53562
N         52.33574       39.34738       76.20029
C         51.59134       39.98344       75.11208
C         50.81806       38.95889       74.28831
O         51.06384       37.76726       74.41742
C         52.52567       40.84453       74.22641
C         53.67971       40.11159       73.58456
O         54.46972       40.73360       72.89270
O         53.86361       38.78844       73.76157
H         53.36685       39.35775       76.16341
H         50.86127       40.68778       75.54822
H         52.95727       41.64617       74.86475
H         51.92659       41.33405       73.42824
N         49.82138       39.36475       73.44768
C         49.00052       38.44678       72.66377
C         48.20482       37.47562       73.52588
O         48.31334       37.53069       74.74186
H         49.62419       40.37361       73.36384
H         49.65794       37.87041       71.97773
H         48.28635       39.04338       72.05636
N         47.38560       36.52033       72.99589
C         47.08374       36.35063       71.57730
C         47.66035       35.05317       71.02269
O         47.43245       34.76923       69.85414
C         45.55250       36.37161       71.38786
C         44.93826       37.65666       71.88604
N         44.01427       37.64348       72.87608
O         45.27418       38.71986       71.38614
H         46.92946       35.86550       73.65236
H         47.52177       37.16932       70.97063
H         45.10981       35.50560       71.92867
H         45.30325       36.26310       70.31017
H         43.71396       36.75840       73.31034
H         43.59407       38.52301       73.21133
N         48.44492       34.22987       71.77746
C         49.04084       32.99806       71.28164
C         50.13486       33.18400       70.23940
O         50.74560       32.18513       69.88814
H         48.62544       34.45899       72.76482
H         48.24894       32.32190       70.89512
H         49.52451       32.48978       72.14516
N         50.46805       34.39849       69.70973
C         51.60718       34.58531       68.81087
C         52.88331       34.32236       69.59085
O         52.95118       34.71732       70.74526
C         51.60632       36.00379       68.18809
C         50.40778       36.19479       67.24948
O         51.57170       36.99245       69.18085
H         49.93577       35.23334       69.98017
H         51.54401       33.87572       67.95540
H         52.51550       36.13240       67.55394
H         52.50134       37.08551       69.50923
H         49.44504       36.07994       67.79051
H         50.43732       37.20797       66.79554
H         50.44413       35.44743       66.42715
N         53.92596       33.63968       69.03651
C         55.08602       33.19800       69.80867
C         56.31491       34.03158       69.47442
O         56.70659       34.12246       68.32011
C         55.32024       31.67330       69.59743
C         56.56915       31.19789       70.38902
C         54.05942       30.89454       70.02646
C         56.90125       29.71660       70.21723
H         53.88033       33.38589       68.03770
H         54.88474       33.33145       70.89258
H         55.49911       31.48543       68.51547
H         56.43451       31.40536       71.46820
H         57.45729       31.76157       70.03455
H         53.17742       31.22618       69.44237
H         54.16618       29.80975       69.83139
H         53.85106       31.05132       71.10741
H         57.83530       29.48722       70.77297
H         56.10223       29.07109       70.63344
H         57.05570       29.47914       69.14389
N         56.98684       34.63965       70.49557
C         58.16442       35.48171       70.37588
C         59.37563       34.87611       71.09616
O         60.42003       35.51304       71.06600
C         57.83395       36.83633       71.03251
C         56.68497       37.54365       70.37272
O         56.82920       38.04675       69.26996
O         55.49533       37.64574       71.00196
H         56.63803       34.51320       71.44824
H         58.43953       35.62934       69.30797
H         58.71188       37.51891       71.02785
H         57.56840       36.64387       72.09486
N         59.33722       33.66544       71.74289
C         60.50188       33.06859       72.40005
C         60.18083       32.68491       73.85662
O         60.26084       31.50832       74.18463
C         60.93223       31.82584       71.58036
C         62.18901       31.10778       72.05413
C         62.50425       29.87517       71.45703
C         63.04349       31.60559       73.06519
C         63.62795       29.15063       71.86591
C         64.16874       30.88000       73.46461
C         64.45881       29.65219       72.86929
H         58.47067       33.11115       71.73981
H         61.35499       33.77937       72.39456
H         61.08992       32.11781       70.51909
H         60.08409       31.10491       71.60726
H         61.86740       29.46638       70.68213
H         62.85954       32.54994       73.55586
H         63.85239       28.19701       71.40661
H         64.81492       31.27048       74.24062
H         65.32760       29.09005       73.18604
N         59.83105       33.60545       74.80590
C         59.54367       33.28783       76.20419
C         58.63480       32.08847       76.40479
O         58.91050       31.27328       77.27354
C         58.86233       34.56025       76.71165
C         59.62479       35.62628       75.95897
C         59.70152       35.02567       74.55644
H         60.50641       33.13038       76.74240
H         57.81020       34.59282       76.35003
H         58.86088       34.66503       77.81797
H         59.19780       36.64954       76.00503
H         60.65386       35.65281       76.38721
H         58.76964       35.19619       73.97655
H         60.57697       35.45950       74.02812
N         57.55365       31.90512       75.59751
C         56.62760       30.78485       75.71610
C         57.38316       29.46779       75.65846
O         57.31460       28.71166       76.61780
C         55.50938       30.77899       74.63086
C         54.54311       31.99076       74.63664
C         55.01385       33.21668       73.89359
O         54.23929       34.31788       73.84598
O         56.03803       33.19469       73.24102
H         57.42255       32.59613       74.86364
H         56.12458       30.85798       76.70645
H         54.88322       29.89052       74.86982
H         55.91225       30.61368       73.60929
H         54.26957       32.23723       75.68340
H         53.61587       31.68537       74.10423
N         58.14190       29.14097       74.57397
C         58.91046       27.91441       74.48042
H         59.98701       28.16299       74.36886
H         58.79613       27.27014       75.37823
H         58.58018       27.33678       73.59255
H         58.19507       29.79589       73.77974
Ca        54.78756       36.03368       72.44747
O         52.49517       38.84048       71.24096
H         51.66692       39.37215       71.14448
H         53.13537       39.25648       70.61029
O         53.42179       36.36630       75.66543
H         53.88427       36.20795       76.52584
H         52.61250       35.79863       75.71098
O         51.38341       34.62403       73.22744
H         51.68898       33.70174       73.03475
H         50.90253       34.55028       74.08922
O         56.42028       36.70583       75.08242
H         56.43990       35.77838       74.73738
H         57.10490       37.18189       74.54939

Ca 1.0



