%chk=apoCaM-CA-Ng.loop4.water3.frame313.chk
%nprocshared=20
%mem=10GB
%nosave
#b3lyp/svp scf=(tight,noincore,xqc) Test 
#IOP(5/87=12) Density=Current Pop=(MK,readradii) iop(6/33=2) iop(6/42=6)

apoCaM-CA-Ng.loop4.water3.frame313 

   -3  1 
C         64.32882       60.86210       28.99738
C         64.70415       59.41145       28.94534
O         65.12026       58.88582       29.96536
H         63.52796       61.00708       29.75375
H         65.21381       61.46601       29.28801
H         63.95775       61.22043       28.01507
N         64.55764       58.69165       27.79361
C         64.85729       57.26961       27.67233
C         63.98977       56.46448       28.62522
O         64.48487       55.93314       29.60231
C         66.38290       56.97132       27.61310
C         67.24807       57.40936       28.75659
O         67.15726       56.80186       29.94515
O         68.10495       58.26259       28.58528
H         64.17278       59.16400       26.96230
H         64.53641       56.93219       26.66126
H         66.76228       57.49013       26.70540
H         66.54139       55.88166       27.45769
N         62.65022       56.36672       28.34519
C         61.59646       55.63594       29.06198
C         61.76745       54.12105       28.95193
O         60.94331       53.49569       28.29835
C         61.35036       56.17587       30.49567
C         60.12240       55.51475       31.18917
C         61.15856       57.70328       30.44271
C         58.77202       55.72612       30.49147
H         62.32525       56.87343       27.50696
H         60.66298       55.86355       28.50153
H         62.23708       55.96076       31.13137
H         60.04326       55.92391       32.22017
H         60.28016       54.42389       31.27916
H         60.34567       57.98899       29.74448
H         60.88457       58.08700       31.43515
H         62.08945       58.20953       30.11321
H         57.97216       55.23709       31.08627
H         58.52339       56.80315       30.40912
H         58.76007       55.26901       29.48276
N         62.82147       53.46330       29.50589
C         63.10445       52.05852       29.24719
C         62.20358       51.10722       30.02704
O         61.65323       50.22012       29.39015
C         64.60322       51.74150       29.47415
C         65.52183       52.51236       28.54981
O         65.08400       53.30367       27.72761
O         66.85030       52.30746       28.61920
H         63.50825       53.98419       30.05466
H         62.95851       51.85428       28.15963
H         64.77237       50.66139       29.27163
H         64.90537       51.94869       30.51718
N         62.00175       51.14992       31.37952
C         62.45211       52.22047       32.25744
C         62.05540       51.97488       33.71245
O         60.95743       51.47991       33.92400
H         61.43650       50.38917       31.78786
H         61.95722       53.15411       31.94049
H         63.52110       52.38035       32.14065
N         62.80352       52.36179       34.79748
C         64.06253       53.10024       34.77268
C         63.83436       54.40208       34.00630
O         64.40536       54.56992       32.93945
C         65.22954       52.18845       34.31576
C         66.56731       52.84425       34.50284
O         66.94618       53.28090       35.72006
O         67.33591       52.94158       33.56233
H         62.40356       52.18220       35.73201
H         64.34629       53.35285       35.81570
H         65.14367       51.83712       33.27515
H         65.22400       51.28415       34.96143
N         62.94097       55.35093       34.43733
C         62.33009       55.36942       35.76152
C         60.86629       55.01257       35.77364
O         60.26753       54.77559       34.73414
H         62.72309       56.14302       33.81601
H         62.49022       56.36801       36.22223
H         62.81337       54.64380       36.43489
N         60.25723       54.86597       36.98612
C         58.90788       54.33389       37.16044
C         57.80544       55.25690       36.66324
O         56.66484       54.81640       36.61945
C         58.68022       53.94352       38.64484
C         58.63806       55.13907       39.61925
C         58.59192       54.66566       41.05075
N         57.54018       54.95567       41.85112
O         59.52680       54.01759       41.49758
H         60.83648       55.03058       37.82361
H         58.86010       53.39017       36.57270
H         59.50787       53.25907       38.93615
H         57.72705       53.37942       38.74350
H         57.74284       55.75168       39.39109
H         59.53660       55.78154       39.50949
H         56.74105       55.49987       41.50208
H         57.52271       54.63027       42.82900
N         58.05180       56.55280       36.31956
C         57.01452       57.48504       35.88655
C         56.77275       58.56862       36.92460
O         55.95533       59.43884       36.65908
C         57.33851       58.07969       34.48761
C         57.24725       56.99264       33.41329
C         58.70475       58.78306       34.42229
H         59.00743       56.92102       36.42213
H         56.03012       56.97360       35.79412
H         56.55538       58.83137       34.24091
H         57.40957       57.44238       32.41281
H         57.99788       56.19461       33.58793
H         56.23379       56.53584       33.41754
H         58.76897       59.58692       35.18490
H         59.53639       58.06518       34.57891
H         58.84548       59.24302       33.42084
N         57.36366       58.53547       38.15828
C         57.02698       59.48223       39.21584
C         58.24422       60.23711       39.73736
O         58.04442       61.22537       40.43188
C         56.31848       58.72299       40.35696
C         55.13637       57.92298       39.84920
N         54.07981       58.52874       39.26077
O         55.14028       56.70660       39.96242
H         58.00168       57.76797       38.39479
H         56.32696       60.24998       38.82228
H         55.97470       59.43207       41.14004
H         57.04454       58.02023       40.82125
H         54.04857       59.55156       39.15107
H         53.28903       57.96743       38.90942
N         59.52543       59.82780       39.48925
C         60.71081       60.55683       39.93861
C         61.69097       60.73194       38.79301
O         61.45306       60.15545       37.74958
C         61.44633       59.76276       41.04133
C         60.61970       59.57291       42.28212
C         60.87777       60.35962       43.41541
C         59.60491       58.60349       42.33191
C         60.12510       60.19022       44.57713
C         58.85793       58.42777       43.50033
C         59.11301       59.22148       44.62500
O         58.38483       59.04458       45.74499
H         59.68888       58.94421       38.98752
H         60.43147       61.55745       40.33639
H         62.35878       60.32956       41.32201
H         61.79757       58.77246       40.67274
H         61.65609       61.11296       43.39640
H         59.40337       57.97446       41.47385
H         60.33275       60.81207       45.43841
H         58.08316       57.67224       43.53195
H         58.53455       59.57430       46.54127
N         62.84774       61.44627       38.98252
C         64.06668       61.49499       38.15751
C         63.94173       62.06436       36.74158
O         64.57144       63.07473       36.45967
C         64.86947       60.16591       38.24283
C         64.30698       58.91670       37.54510
C         65.17589       57.72280       37.82420
O         64.65246       56.63249       38.41725
O         66.35780       57.73302       37.51944
H         62.92615       61.95247       39.87832
H         64.74351       62.20695       38.68673
H         64.99510       59.92980       39.32337
H         65.88278       60.35450       37.82202
H         64.27606       59.07285       36.45027
H         63.29521       58.67690       37.91555
N         63.20068       61.44623       35.78917
C         63.12087       61.82572       34.38672
C         62.68941       63.26756       34.23025
O         63.41602       64.03906       33.61836
C         62.12878       60.89708       33.62917
C         62.35985       59.37967       33.80299
C         63.69798       58.90149       33.34324
O         64.71928       59.28890       33.88622
O         63.77414       57.95688       32.39522
H         62.69805       60.62081       36.06326
H         64.12953       61.71231       33.93291
H         62.15501       61.14758       32.54589
H         61.09771       61.09060       33.99715
H         61.57102       58.85331       33.25063
H         62.22148       59.04125       34.84633
N         61.52115       63.70855       34.76980
C         61.08782       65.08124       34.63377
H         60.12391       65.22820       35.16457
H         61.84577       65.76399       35.07398
H         60.94671       65.32775       33.55983
H         60.92605       63.05615       35.30212
Ca        65.76040       56.96078       32.16750
O         68.22038       58.66531       32.66099
H         68.35158       59.03114       31.75025
H         69.13619       58.49431       32.99593
O         68.28087       55.38569       32.13113
H         68.17936       54.50884       31.68204
H         68.51623       55.17088       33.06802
O         66.06128       56.54506       34.98104
H         66.45263       57.44514       34.84999
H         66.84242       55.93858       34.99065

Ca 1.0



