%chk=apoCaM-CA-Ng.loop1.water3.frame1442.chk
%nprocshared=20
%mem=10GB
%nosave
#b3lyp/svp scf=(tight,noincore,xqc) Test 
#IOP(5/87=12) Density=Current Pop=(MK,readradii) iop(6/33=2) iop(6/42=6)

apoCaM-CA-Ng.loop1.water3.frame1442 

   0  1 
C         36.46492      101.20363       26.00449
C         37.08071      102.55566       25.80020
O         37.09756      103.02945       24.67321
H         35.39988      101.22835       25.69567
H         37.00761      100.45650       25.38710
H         36.52276      100.88740       27.06733
N         37.64492      103.22348       26.84482
C         38.32183      104.50519       26.68575
C         39.23349      104.77950       27.86625
O         39.19729      105.84690       28.46340
C         37.32349      105.64188       26.36662
C         36.21031      105.74637       27.37784
O         36.47300      106.01719       28.67002
O         35.05260      105.58935       27.02380
H         37.65247      102.76893       27.77105
H         39.03086      104.41479       25.84004
H         36.87254      105.45089       25.36982
H         37.86463      106.61029       26.29654
N         40.14256      103.82806       28.20725
C         41.17824      104.01555       29.20927
C         42.11638      105.14054       28.76973
O         42.26656      106.06676       29.55326
C         41.92389      102.68694       29.50572
C         41.11793      101.70470       30.39825
C         39.74125      101.28184       29.84981
C         38.96138      100.35017       30.79625
N         39.59595       99.04144       30.95397
H         40.11477      102.93328       27.69407
H         40.71847      104.32123       30.17740
H         42.84185      102.92283       30.08795
H         42.24852      102.18568       28.57171
H         40.95831      102.18498       31.38879
H         41.75144      100.80654       30.55238
H         39.85154      100.79785       28.85582
H         39.11089      102.18731       29.74555
H         37.94489      100.19941       30.36812
H         38.83915      100.83443       31.79108
H         40.52353       99.13058       31.42444
H         38.98303       98.44099       31.55210
H         39.70635       98.58226       30.02094
N         42.75205      105.21844       27.55689
C         42.67012      104.26169       26.45586
C         41.91310      104.83784       25.26446
O         41.57429      106.01335       25.25651
C         44.06817      103.69697       26.11801
C         45.20967      104.68868       26.16951
O         45.34704      105.72891       25.32519
O         46.06297      104.54033       27.03043
H         43.31788      106.06525       27.38612
H         42.05943      103.39247       26.73712
H         44.05607      103.14471       25.15829
H         44.28968      102.94961       26.91298
N         41.47121      103.98825       24.29078
C         40.51279      104.35971       23.25637
C         41.07691      105.19992       22.14194
O         42.25537      105.49076       22.12677
H         41.70889      102.98755       24.37090
H         39.64361      104.87204       23.71564
H         40.13813      103.42833       22.77914
N         40.25439      105.58781       21.12664
C         40.73183      106.25872       19.91253
C         39.91207      105.79866       18.70319
O         38.84037      105.24410       18.89690
C         40.62019      107.79020       20.07083
C         41.47483      108.32412       21.18368
O         40.90475      108.97314       22.21647
O         42.68860      108.19808       21.14398
H         39.26507      105.30795       21.19552
H         41.78330      105.95597       19.73593
H         39.55801      108.05593       20.26578
H         40.93240      108.30609       19.14375
N         40.30805      105.96308       17.40560
C         41.56566      106.51022       16.92682
C         42.75556      105.66845       17.32248
O         42.68851      104.45024       17.23239
H         39.65616      105.63581       16.67412
H         41.69348      107.57263       17.21303
H         41.53298      106.48902       15.81587
N         43.92214      106.27191       17.67901
C         45.13990      105.53582       18.00047
C         44.99525      104.82924       19.33575
O         44.58817      105.46099       20.29778
C         46.36651      106.48122       17.99751
C         47.68138      105.70959       18.18030
O         46.25350      107.45967       18.99957
H         43.95836      107.30246       17.65491
H         45.33911      104.80091       17.18770
H         46.43198      106.96186       16.99094
H         45.92459      108.29148       18.57006
H         48.54222      106.40836       18.12354
H         47.71364      105.19005       19.16026
H         47.79642      104.94955       17.37718
N         45.37018      103.52264       19.45973
C         45.32025      102.72733       20.68574
C         46.15870      103.36603       21.78649
O         45.72071      104.34512       22.37319
C         43.85466      102.47154       21.15362
C         43.00314      101.88590       19.99870
C         43.83352      101.53929       22.38287
C         41.50905      101.80703       20.31809
H         45.74671      103.04935       18.62462
H         45.76600      101.73743       20.43613
H         43.41368      103.44342       21.44300
H         43.38332      100.87974       19.71921
H         43.08673      102.54458       19.11011
H         44.24966      100.54306       22.12256
H         44.43681      101.96020       23.21070
H         42.80632      101.40781       22.77550
H         41.30052      101.12591       21.16614
H         41.11764      102.81890       20.55026
H         40.96432      101.42191       19.43098
N         47.36534      102.84479       22.14418
C         48.16264      103.36944       23.24904
C         49.50355      103.94597       22.80802
O         50.23627      104.36711       23.68610
C         48.34577      102.27985       24.33909
C         49.10717      101.04080       23.85849
O         47.08811      101.87330       24.81416
H         47.72484      102.03376       21.61846
H         47.63597      104.21449       23.74742
H         48.94286      102.70947       25.18036
H         46.86490      102.45875       25.58288
H         48.55061      100.51303       23.05766
H         50.11508      101.31742       23.48526
H         49.22995      100.33380       24.70650
N         49.89617      104.02232       21.49438
C         51.19516      104.58290       21.10097
C         51.26752      106.05009       21.51413
O         50.70877      106.89062       20.82459
C         51.42309      104.40924       19.57478
C         52.79535      104.92327       19.12351
O         51.31776      103.04708       19.24761
H         49.26962      103.66400       20.76181
H         51.98308      104.00376       21.63259
H         50.62801      104.98360       19.04142
H         51.05862      102.99831       18.28978
H         52.90895      106.00538       19.34226
H         53.60558      104.36108       19.63371
H         52.90165      104.78352       18.02617
N         51.86110      106.39813       22.69813
C         51.84204      107.72883       23.31005
C         50.42333      108.22499       23.57208
O         49.51187      107.86395       22.84640
C         52.67861      108.76503       22.53758
C         54.15178      108.33301       22.43670
C         55.02628      109.45959       21.87252
C         56.49924      109.03217       21.79531
N         57.34292      110.14065       21.34872
H         52.30783      105.65199       23.25200
H         52.31932      107.62659       24.31153
H         52.63249      109.72177       23.10387
H         52.26274      108.94177       21.52214
H         54.23268      107.42522       21.79904
H         54.52898      108.08728       23.45426
H         54.94452      110.34165       22.54553
H         54.67038      109.74800       20.85968
H         56.60043      108.17860       21.08860
H         56.84706      108.69902       22.79887
H         58.33408      109.81369       21.28471
H         57.03342      110.47729       20.40842
H         57.29346      110.92604       22.03837
N         50.14962      109.06365       24.61153
C         48.78863      109.52973       24.87361
C         47.84910      108.36606       25.16699
O         46.87380      108.23952       24.44113
C         48.69319      110.57884       26.00204
C         49.48312      111.85411       25.68306
C         49.24173      112.90063       26.73234
O         50.26720      113.37396       27.46464
O         48.11572      113.33519       26.91926
H         50.92381      109.37361       25.21796
H         48.42127      110.04544       23.95537
H         49.02408      110.17806       26.98002
H         47.61834      110.85458       26.09936
H         49.16424      112.26283       24.69993
H         50.56769      111.62224       25.63471
N         48.01779      107.46829       26.18333
C         49.11639      107.41351       27.12291
H         49.89029      108.17559       26.94869
H         48.71872      107.53547       28.15219
H         49.60407      106.41926       27.04631
H         47.30524      106.73912       26.30268
Ca        44.20229      106.48382       23.56357
O         43.02531      108.90548       24.92925
H         42.79727      108.34666       25.71378
H         42.54484      108.47905       24.17674
O         47.19295      106.50406       21.45830
H         47.34611      106.61285       22.42859
H         47.98552      106.90589       21.02412
O         45.52787      109.40301       21.87192
H         46.49502      109.43212       21.66146
H         45.36542      110.22054       22.40659

Ca 1.0



