%chk=apoCaM-CA-Ng.loop3.water5.frame476.chk
%nprocshared=20
%mem=10GB
%nosave
#b3lyp/svp scf=(tight,noincore,xqc) Test 
#IOP(5/87=12) Density=Current Pop=(MK,readradii) iop(6/33=2) iop(6/42=6)

apoCaM-CA-Ng.loop3.water5.frame476 

   0  1 
C         42.76820       46.92197      110.63993
C         41.73865       45.91728      111.06959
O         40.55702       46.21847      110.98766
H         43.79829       46.52705      110.76314
H         42.61281       47.18196      109.57214
H         42.67290       47.84120      111.25326
N         42.11901       44.69515      111.54416
C         41.19431       43.66060      111.99561
C         40.42668       44.15382      113.21816
O         39.20757       44.25417      113.19659
C         40.31351       43.17208      110.81948
C         39.51227       41.93385      111.13405
O         38.80681       41.44205      110.26812
O         39.57900       41.34255      112.34359
H         43.12644       44.47921      111.59647
H         41.80191       42.78399      112.31696
H         40.98342       42.91598      109.96889
H         39.62287       43.97382      110.48680
N         41.12810       44.47213      114.34289
C         40.53707       44.95454      115.59377
C         40.04324       46.39724      115.52020
O         39.60596       46.89936      116.54764
C         41.59961       44.89883      116.71523
C         42.01053       43.46484      117.06918
C         43.12137       43.48961      118.12875
C         43.55119       42.08983      118.59024
N         42.50472       41.41753      119.36352
H         42.14858       44.32093      114.31233
H         39.69048       44.29606      115.89128
H         41.18998       45.34760      117.64795
H         42.48543       45.49688      116.40404
H         42.38561       42.92680      116.17272
H         41.11023       42.93756      117.44814
H         42.80220       44.07968      119.01580
H         44.00510       43.99344      117.67869
H         44.44611       42.20602      119.24044
H         43.84181       41.46985      117.71347
H         42.87187       40.49984      119.70337
H         42.24425       41.99976      120.19307
H         41.65968       41.23570      118.77841
N         40.09521       47.14151      114.37967
C         39.75333       48.56029      114.33967
C         38.36952       48.80919      114.92753
O         37.42837       48.11754      114.56618
C         39.88589       49.09336      112.89729
C         39.88043       50.59529      112.85243
O         40.86339       51.19729      112.45021
O         38.80704       51.28753      113.26288
H         40.42630       46.70557      113.51217
H         40.51103       49.09986      114.95130
H         39.08658       48.67723      112.24702
H         40.86476       48.76182      112.49008
N         38.19965       49.77399      115.87749
C         36.94745       50.05042      116.56804
C         35.81455       50.39956      115.62947
O         34.77902       49.75260      115.69315
H         39.01444       50.34809      116.14263
H         37.10800       50.90824      117.25698
H         36.66517       49.16976      117.18466
N         35.95302       51.39347      114.70882
C         34.91721       51.74627      113.73813
C         35.18010       51.11084      112.36974
O         34.50662       51.46340      111.41163
C         34.69441       53.28030      113.69889
C         35.86464       54.11229      113.23322
N         35.74502       55.45788      113.15205
O         36.91983       53.58567      112.92780
H         36.86286       51.86586      114.65132
H         33.93824       51.32442      114.05523
H         34.41720       53.62110      114.72042
H         33.83705       53.49518      113.02490
H         34.86160       55.92444      113.40423
H         36.53553       56.03681      112.83311
N         36.03701       50.05282      112.24619
C         36.19306       49.25296      111.04088
C         37.09485       49.86303      109.99375
O         37.27155       49.23618      108.95896
H         36.51541       49.70657      113.07878
H         35.19146       49.01826      110.61914
H         36.66586       48.28720      111.32272
N         37.70063       51.06748      110.17547
C         38.54748       51.69048      109.16208
C         38.78252       53.20306      109.44589
O         38.04065       53.72159      110.50313
C         39.89089       50.92818      108.98927
C         40.94143       51.73809      108.25560
C         41.20638       51.54658      106.89129
C         41.66408       52.72020      108.96152
C         42.16322       52.34070      106.24332
C         42.61810       53.50542      108.31640
C         42.86833       53.32263      106.95167
O         43.78028       54.08410      106.31401
H         37.50559       51.57424      111.04513
H         37.99321       51.62602      108.20203
H         39.69646       49.96341      108.47394
H         40.32125       50.66507      109.97684
H         40.66348       50.79967      106.32692
H         41.48324       52.87958      110.01771
H         42.35383       52.19803      105.18759
H         43.15773       54.25757      108.87858
H         44.28055       54.77603      106.77123
N         38.67271       54.00116      108.20601
C         38.39590       55.43970      108.35079
C         37.01832       55.67146      108.98007
O         36.94977       56.40455      109.95647
C         38.54882       56.12900      106.96229
C         39.95238       55.80560      106.37323
C         38.34926       57.65084      107.09013
C         40.20000       56.38349      104.98017
H         37.99123       53.59768      107.52548
H         39.17217       55.88700      109.01192
H         37.77245       55.72661      106.27338
H         40.06478       54.70432      106.27780
H         40.74629       56.17256      107.06030
H         38.39565       58.14904      106.10204
H         37.35161       57.88025      107.49717
H         39.11632       58.09340      107.76078
H         39.42786       56.02112      104.26946
H         40.20471       57.49154      104.99541
H         41.19786       56.05238      104.62196
N         35.89709       55.01634      108.54290
C         34.60951       55.16437      109.22320
C         34.01464       56.54914      109.02109
O         33.08826       56.89912      109.73994
C         33.61482       54.07901      108.78187
O         33.34317       54.19088      107.41178
H         35.97043       54.34985      107.76197
H         34.78935       55.00744      110.31124
H         32.66956       54.18126      109.36110
H         34.06440       53.08274      108.99942
H         32.81581       53.38530      107.17034
N         34.49855       57.38927      108.06112
C         34.06063       58.75814      107.84093
C         34.35982       59.61548      109.05986
O         33.49433       60.32325      109.55165
C         32.59704       58.81360      107.38093
H         35.24635       57.05546      107.43799
H         34.67492       59.17023      107.00891
H         32.47076       58.19202      106.46838
H         31.90628       58.44013      108.16350
H         32.31702       59.85868      107.13124
N         35.61472       59.57937      109.58985
C         36.07532       60.39403      110.70320
C         37.32015       61.12947      110.25126
O         38.25588       60.47596      109.81361
C         36.39153       59.49460      111.89821
H         36.29527       58.92853      109.17713
H         35.29283       61.11403      111.02753
H         36.75492       60.10776      112.75073
H         35.47221       58.95798      112.21702
H         37.16421       58.74434      111.63476
N         37.38747       62.49271      110.29019
C         38.50983       63.26200      109.75603
C         38.61437       63.01258      108.26166
O         39.65204       62.57873      107.77598
C         39.83960       62.96474      110.50347
C         39.79280       63.29748      112.00177
C         39.59994       64.76722      112.24767
O         38.53243       65.20201      112.94288
O         40.41732       65.57273      111.83000
H         36.58815       63.01931      110.67172
H         38.28688       64.34476      109.88054
H         40.66216       63.55343      110.03977
H         40.11219       61.89542      110.39519
H         40.75762       62.99583      112.46420
H         38.98196       62.71524      112.48982
N         37.54080       63.26500      107.46514
C         37.56592       63.03505      106.03808
H         38.35026       63.66395      105.56638
H         37.77192       61.96324      105.83062
H         36.58193       63.29959      105.59586
H         36.67117       63.62661      107.88695
Ca        39.65032       53.95695      112.10801
O         39.03426       56.84821      112.25961
H         39.23107       56.52075      111.34747
H         39.34463       57.78731      112.25616
O         42.11208       53.35589      114.39491
H         42.26897       52.77530      115.18153
H         42.97848       53.81107      114.24508
O         39.24337       53.35133      115.77470
H         39.53774       53.84565      116.58023
H         38.50810       52.77557      116.09907
O         42.40016       55.43343      111.74000
H         41.90989       55.64460      110.90595
H         42.89165       54.59860      111.53488
O         40.25469       56.03498      114.95084
H         40.79518       56.73632      114.50832
H         39.34805       56.42651      115.02571

Ca 1.0



