%chk=apoCaM-CA-Ng.loop2.water4.frame758.chk
%nprocshared=20
%mem=10GB
%nosave
#b3lyp/svp scf=(tight,noincore,xqc) Test 
#IOP(5/87=12) Density=Current Pop=(MK,readradii) iop(6/33=2) iop(6/42=6)

apoCaM-CA-Ng.loop2.water4.frame758 

   -2  1 
C         75.42551       30.61551        1.13850
C         76.14420       31.38870        0.07287
O         75.89562       31.16091       -1.10257
H         74.69364       29.90998        0.69024
H         76.16090       30.03947        1.73727
H         74.87930       31.31538        1.80647
N         77.03293       32.35822        0.42508
C         77.74608       33.18582       -0.53759
C         77.11965       34.56017       -0.52343
O         77.05757       35.18489        0.52759
C         79.24719       33.23652       -0.18275
C         80.08606       34.04233       -1.14746
O         81.40796       34.16484       -0.92489
O         79.59414       34.58254       -2.12636
H         77.16320       32.56032        1.42914
H         77.65432       32.75696       -1.56048
H         79.64802       32.20036       -0.16880
H         79.36851       33.67118        0.83332
N         76.60924       35.08633       -1.67206
C         75.91058       36.36505       -1.70266
C         74.59800       36.24771       -0.93292
O         74.16553       35.12567       -0.70125
C         75.62823       36.73781       -3.16941
H         76.71725       34.55275       -2.54959
H         76.57483       37.12900       -1.24999
H         76.58559       36.79765       -3.72999
H         74.99143       35.96191       -3.64862
H         75.11823       37.70942       -3.28032
N         73.85213       37.31473       -0.52446
C         74.22931       38.72156       -0.62843
C         75.39495       39.07715        0.28830
O         75.29308       38.89140        1.49211
C         73.02873       39.65113       -0.31429
C         72.49357       39.56603        1.09354
O         71.97462       38.54325        1.51010
O         72.56337       40.64430        1.89502
H         72.93759       37.08733       -0.10931
H         74.48640       38.95605       -1.67643
H         72.20037       39.44060       -1.02465
H         73.36246       40.69759       -0.49238
N         76.50857       39.67549       -0.21753
C         77.57298       40.22057        0.61134
C         78.34404       39.15741        1.36773
O         78.89315       38.28958        0.70445
H         76.57231       39.83092       -1.23512
H         77.15161       41.00967        1.25766
H         78.30408       40.73119       -0.05251
N         78.52452       39.15229        2.72626
C         77.94106       40.08464        3.69088
C         77.47192       39.31195        4.92155
O         77.87060       39.61293        6.03824
C         78.94343       41.22815        3.99133
C         80.32532       40.75918        4.40295
N         81.41142       41.08706        3.66129
O         80.47115       40.09101        5.41471
H         79.16017       38.43371        3.10974
H         77.02077       40.54922        3.29101
H         78.52698       41.89623        4.77577
H         79.04215       41.83462        3.06481
H         81.32124       41.65698        2.80733
H         82.35255       40.77407        3.94308
N         76.63189       38.25262        4.76009
C         76.24141       37.35636        5.83673
C         75.20374       37.88100        6.81288
O         74.84708       37.11054        7.69314
H         76.35228       37.99396        3.80251
H         77.15098       37.02466        6.38367
H         75.78946       36.45109        5.37670
N         74.64428       39.12633        6.74108
C         73.58509       39.54452        7.66911
C         72.34824       38.66369        7.46842
O         71.80990       38.61556        6.37331
C         73.25269       41.04799        7.53533
C         74.44095       41.91657        7.97735
O         72.89899       41.35493        6.21468
H         74.96601       39.78055        6.01345
H         73.95595       39.40831        8.71011
H         72.39776       41.26643        8.21779
H         72.49711       42.26284        6.23266
H         74.70807       41.69061        9.03253
H         75.33049       41.74072        7.33753
H         74.16840       42.99140        7.91730
N         71.91327       37.87020        8.48919
C         70.91755       36.80290        8.34878
C         69.48578       37.33205        8.22609
O         69.01628       38.02296        9.11857
C         71.03914       35.80544        9.55167
C         69.97985       34.67110        9.45759
C         72.46350       35.19760        9.59163
C         70.00398       33.69947       10.64055
H         72.41482       37.94925        9.38552
H         71.17037       36.20538        7.44351
H         70.86350       36.36928       10.49512
H         70.11905       34.09735        8.51528
H         68.96481       35.11981        9.44877
H         73.25164       35.97014        9.67258
H         72.60313       34.55001       10.47814
H         72.65752       34.60341        8.67271
H         70.95118       33.12657       10.68196
H         69.85906       34.25125       11.59333
H         69.18440       32.96037       10.53135
N         68.71170       36.93374        7.17243
C         67.28620       37.20942        6.99783
C         66.45093       35.91959        6.97879
O         65.23854       36.03048        6.85278
C         67.07904       37.93948        5.66413
C         67.75556       39.27387        5.63801
O         67.33103       40.19323        6.32027
O         68.83060       39.46440        4.85304
H         69.15158       36.36097        6.45094
H         66.90136       37.83887        7.83082
H         65.99914       38.10250        5.45220
H         67.48594       37.29909        4.85331
N         67.00197       34.67679        7.13924
C         66.21755       33.44842        7.25022
C         66.76721       32.35914        6.32070
O         67.22165       31.33720        6.81798
C         66.22523       33.05759        8.74910
C         65.53744       31.75377        9.09093
C         64.20216       31.50546        8.72568
C         66.24401       30.77032        9.80809
C         63.59412       30.29048        9.06497
C         65.62951       29.56493       10.15332
C         64.30643       29.32309        9.77985
H         68.01447       34.58532        7.29152
H         65.15312       33.61602        6.98031
H         65.71596       33.87170        9.31030
H         67.27742       33.02184        9.10135
H         63.63255       32.24327        8.17629
H         67.27016       30.93934       10.11091
H         62.56880       30.09816        8.77675
H         66.18072       28.81960       10.71238
H         63.83380       28.38665       10.04701
N         66.73023       32.46730        4.95224
C         67.15356       31.40897        4.03626
C         68.58866       30.94076        4.18832
O         68.93277       29.91396        3.61979
C         67.01712       32.05610        2.65400
C         65.84585       32.98504        2.85608
C         66.14313       33.57868        4.23378
H         66.45319       30.55600        4.18663
H         67.90016       32.71408        2.46956
H         66.93356       31.33714        1.81089
H         65.69130       33.73558        2.05225
H         64.93682       32.34584        2.93316
H         66.88827       34.40151        4.19294
H         65.18539       33.93370        4.66796
N         69.50082       31.68515        4.86993
C         70.89173       31.29534        5.01844
C         70.95380       30.04777        5.87456
O         71.52982       29.05804        5.44361
C         71.76987       32.41987        5.62947
C         72.06366       33.61630        4.68122
C         71.00970       34.68465        4.55569
O         71.26479       35.78191        3.81610
O         69.98323       34.63713        5.20022
H         69.18709       32.55479        5.29795
H         71.33315       31.07348        4.02010
H         72.76462       31.95040        5.79798
H         71.39991       32.76455        6.62002
H         72.34445       33.23740        3.67547
H         72.94622       34.14916        5.09682
N         70.33838       30.01118        7.08847
C         70.33647       28.82359        7.91372
H         69.72094       28.99486        8.82242
H         69.90100       27.96961        7.35072
H         71.37364       28.57509        8.22111
H         69.82600       30.84076        7.42448
Ca        70.11740       37.69622        4.24030
O         70.90169       41.37626        4.13532
H         71.27609       40.47667        4.31470
H         70.41696       41.61474        4.96499
O         68.28631       36.50664        2.21316
H         67.59488       36.06231        1.66240
H         68.44570       35.87904        2.96197
O         69.14109       39.89935        1.95370
H         68.88523       40.79727        2.28342
H         68.48394       39.69984        1.24114
O         73.61251       37.29484        3.85083
H         73.74907       38.23650        3.57944
H         74.13103       36.76427        3.19471

Ca 1.0



