%chk=apoCaM-CA-Ng.loop3.water4.frame6.chk
%nprocshared=20
%mem=10GB
%nosave
#b3lyp/svp scf=(tight,noincore,xqc) Test 
#IOP(5/87=12) Density=Current Pop=(MK,readradii) iop(6/33=2) iop(6/42=6)

apoCaM-CA-Ng.loop3.water4.frame6 

   0  1 
C         66.14132       51.54869      100.59371
C         67.38779       52.19939      101.11751
O         68.45119       51.60493      101.02263
H         65.25157       52.19710      100.74419
H         66.25191       51.35202       99.50736
H         65.97059       50.59069      101.12712
N         67.32396       53.43066      101.69535
C         68.46502       54.15159      102.24482
C         69.08653       53.38948      103.40565
O         70.29325       53.18927      103.44748
C         69.47228       54.53486      101.14204
C         68.80999       55.36146      100.07201
O         68.24673       56.54518      100.38231
O         68.78003       54.96457       98.91806
H         66.40528       53.89537      101.76529
H         68.07986       55.10203      102.68013
H         69.91688       53.62264      100.69074
H         70.29606       55.13091      101.58741
N         68.27965       52.97705      104.42233
C         68.75927       52.38810      105.67223
C         69.46138       51.04914      105.50880
O         70.01382       50.58404      106.49803
C         67.57305       52.17604      106.64661
C         66.81472       53.46081      107.02745
C         67.60963       54.37486      107.96638
C         66.79954       55.64137      108.27490
N         67.46435       56.46081      109.28542
H         67.27130       53.15411      104.31267
H         69.49277       53.09276      106.11985
H         67.91240       51.68255      107.58442
H         66.85666       51.48727      106.14570
H         65.88928       53.15747      107.56326
H         66.50067       54.02163      106.12477
H         68.57881       54.67300      107.51395
H         67.81043       53.81850      108.90834
H         65.78904       55.36327      108.64854
H         66.67588       56.22971      107.33741
H         66.90501       57.33093      109.43822
H         67.51663       55.93283      110.18712
H         68.42634       56.72188      108.97028
N         69.47122       50.34377      104.34030
C         70.14286       49.05100      104.24368
C         71.63727       49.20376      104.49801
O         72.17816       50.28801      104.33125
C         69.86328       48.40064      102.86425
C         70.58515       47.06668      102.66455
O         70.21081       46.13465      103.63610
O         70.28195       46.51522      101.41435
H         68.96761       50.70754      103.51947
H         69.71693       48.38905      105.03124
H         70.20088       49.08953      102.05950
H         68.76700       48.24475      102.75240
N         72.35970       48.13674      104.93635
C         73.79897       48.14671      105.11899
C         74.50533       48.33792      103.79993
O         75.49224       49.05838      103.75179
H         71.87117       47.25333      105.13942
H         74.10222       47.15427      105.51590
H         74.10677       48.91828      105.85914
N         74.03293       47.72802      102.67279
C         74.66157       47.87035      101.36220
C         74.70493       49.33062      100.90820
O         75.50154       49.64407      100.03485
C         73.96303       46.99747      100.29143
C         73.99397       45.51960      100.63138
N         74.65653       44.64227       99.84375
O         73.41057       45.10438      101.62123
H         73.18954       47.15088      102.76139
H         75.71119       47.51489      101.46732
H         74.48235       47.15451       99.32117
H         72.90567       47.32003      100.16471
H         75.15328       44.95452       98.99809
H         74.67790       43.64073      100.08719
N         73.91414       50.28224      101.48829
C         74.04011       51.70926      101.24848
C         73.76303       52.09511       99.81853
O         72.65814       51.88091       99.34139
H         73.21577       49.99628      102.18109
H         75.06381       52.02015      101.55136
H         73.32410       52.25643      101.89884
N         74.74642       52.69864       99.08987
C         74.67527       53.14557       97.69948
C         74.63248       52.02838       96.66947
O         74.89747       52.33641       95.51679
C         73.52045       54.13426       97.43092
C         73.50842       55.33001       98.34852
C         72.37235       55.60287       99.12707
C         74.60864       56.20025       98.41410
C         72.33392       56.72880       99.95371
C         74.57167       57.32192       99.24820
C         73.43117       57.59108      100.01871
O         73.37603       58.67435      100.81908
H         75.64161       52.88693       99.56763
H         75.63887       53.66882       97.50602
H         72.55343       53.59005       97.49965
H         73.60411       54.50875       96.38749
H         71.51220       54.94953       99.08322
H         75.49261       56.01517       97.81820
H         71.44923       56.93701      100.54067
H         75.42670       57.98408       99.28931
H         74.11082       59.29992      100.88939
N         74.26934       50.74644       96.97421
C         74.19913       49.62160       96.04880
C         75.56965       48.98938       95.92214
O         75.70495       47.82727       96.27970
C         73.54253       49.92696       94.66110
C         72.25583       50.79631       94.73395
C         73.24996       48.60971       93.91040
C         71.13012       50.23281       95.59851
H         73.99432       50.51268       97.93071
H         73.54534       48.86095       96.53789
H         74.26678       50.49732       94.04060
H         71.87267       50.95178       93.70130
H         72.49814       51.80190       95.12844
H         72.84642       48.82400       92.89811
H         74.16365       47.99757       93.78756
H         72.51655       47.98668       94.46226
H         71.46227       50.12911       96.65187
H         70.27404       50.94048       95.57491
H         70.77816       49.25479       95.21628
N         76.64598       49.69138       95.45770
C         77.95956       49.08367       95.30571
C         77.98138       48.10949       94.13837
O         78.92855       47.34341       94.04811
C         79.04303       50.15416       95.11325
O         79.04332       51.01872       96.21684
H         76.54070       50.68384       95.21953
H         78.19550       48.53732       96.24764
H         78.83101       50.72722       94.18198
H         80.03892       49.66354       95.03423
H         79.68671       51.74294       96.00295
N         76.96971       48.07785       93.21206
C         76.88915       47.11968       92.11281
C         76.72580       45.68965       92.61693
O         76.81277       44.77247       91.80569
C         78.08078       47.29125       91.15810
H         76.20704       48.76294       93.27046
H         75.98300       47.34603       91.50754
H         79.04935       47.04919       91.63668
H         77.95824       46.63081       90.27326
H         78.11399       48.34132       90.79412
N         76.43595       45.41729       93.92411
C         76.28811       44.08061       94.47549
C         74.88941       43.85670       95.02324
O         74.07341       44.77402       95.01179
C         77.32801       43.89604       95.58318
H         76.30085       46.19286       94.58460
H         76.46655       43.31539       93.68768
H         77.15799       44.63854       96.39406
H         77.27868       42.87632       96.01586
H         78.34623       44.05241       95.16830
N         74.53148       42.62155       95.47608
C         73.19911       42.25311       95.94115
C         72.18822       42.55839       94.84445
O         71.23094       43.28460       95.06683
C         72.89112       42.90514       97.31408
C         71.59366       42.36726       97.95104
C         71.35619       42.96957       99.30444
O         70.36481       43.65199       99.50437
O         72.21674       42.73516      100.31239
H         75.23249       41.86393       95.42942
H         73.19864       41.15283       96.10950
H         72.83744       44.01105       97.21642
H         73.73107       42.65690       97.99889
H         71.65212       41.26348       98.06616
H         70.72247       42.59980       97.30778
N         72.39303       42.05402       93.59532
C         71.51694       42.31994       92.47305
H         70.63358       42.92880       92.75825
H         72.08305       42.86967       91.69192
H         71.15995       41.35810       92.05133
H         73.22680       41.47418       93.41886
Ca        69.59119       44.49814      102.20323
O         68.37836       41.97828      101.08799
H         67.78471       42.08489      101.87336
H         68.55141       41.00518      101.03466
O         72.49215       43.99587      104.62975
H         73.41709       44.26521      104.40115
H         72.17266       44.70415      105.24323
O         68.49090       44.42235      105.09040
H         67.96922       45.25429      104.96077
H         67.81164       43.70356      105.12034
O         70.13897       41.73113      104.14210
H         69.58825       41.10179      103.61227
H         70.05965       41.40516      105.07372

Ca 1.0



