%chk=apoCaM-CA-Ng.loop3.water3.frame912.chk
%nprocshared=20
%mem=10GB
%nosave
#b3lyp/svp scf=(tight,noincore,xqc) Test 
#IOP(5/87=12) Density=Current Pop=(MK,readradii) iop(6/33=2) iop(6/42=6)

apoCaM-CA-Ng.loop3.water3.frame912 

   0  1 
C          1.85461       -8.84437       38.58821
C          1.74840      -10.24002       39.12651
O          2.36038      -11.13597       38.56612
H          2.91690       -8.52090       38.62654
H          1.49866       -8.81582       37.53887
H          1.25470       -8.13037       39.19134
N          1.01708      -10.48991       40.24641
C          0.97099      -11.79581       40.89438
C          0.21464      -12.81453       40.03228
O         -0.74264      -12.41156       39.38531
C          0.31484      -11.64261       42.28438
C          0.69787      -12.72512       43.24813
O          0.16672      -12.76666       44.34361
O          1.70591      -13.57251       42.98221
H          0.53900       -9.69484       40.69847
H          2.01498      -12.10056       41.06835
H         -0.78861      -11.57698       42.16281
H          0.66062      -10.70648       42.77332
N          0.52825      -14.15080       40.02911
C         -0.23013      -15.14873       39.25490
C         -1.12025      -16.02144       40.13689
O         -1.99663      -16.67936       39.59299
C          0.68394      -16.00615       38.33832
C          1.69975      -16.85833       39.12043
C          2.59308      -17.71679       38.21215
C          3.61596      -18.49665       39.05837
N          4.51112      -19.29661       38.22385
H          1.29788      -14.46869       40.63113
H         -0.94056      -14.61445       38.58727
H          1.23068      -15.33368       37.64235
H          0.04571      -16.68344       37.72738
H          1.16135      -17.52682       39.82788
H          2.35954      -16.17803       39.68527
H          3.13721      -17.05699       37.50185
H          1.96812      -18.43092       37.63203
H          3.07989      -19.16590       39.76848
H          4.22826      -17.77970       39.64654
H          3.96487      -19.99974       37.67606
H          5.04784      -18.67581       37.57549
H          5.18906      -19.80069       38.84118
N         -0.98136      -16.06401       41.49274
C         -1.91350      -16.74781       42.38914
C         -2.50898      -15.76308       43.40051
O         -3.28737      -16.19487       44.23953
C         -1.24002      -17.99666       43.02220
C          0.10455      -17.72924       43.62644
O          1.10578      -18.17107       43.08481
O          0.24156      -16.92492       44.68727
H         -0.18893      -15.57368       41.93056
H         -2.78566      -17.14879       41.82763
H         -1.08212      -18.71988       42.19139
H         -1.90919      -18.48364       43.76302
N         -2.24538      -14.41718       43.34850
C         -2.84962      -13.43089       44.23580
C         -2.43162      -13.53904       45.69057
O         -2.93498      -12.75595       46.48328
H         -1.64244      -14.03899       42.60718
H         -3.95523      -13.51426       44.16275
H         -2.56632      -12.41258       43.88914
N         -1.54828      -14.48261       46.12568
C         -1.21798      -14.70096       47.52739
C          0.29639      -14.69840       47.74345
O          1.04922      -14.70045       46.78288
C         -1.87152      -16.04981       47.90234
C         -1.71801      -16.47753       49.33464
N         -1.15346      -17.67113       49.63375
O         -2.13624      -15.76032       50.23097
H         -1.14072      -15.13363       45.44988
H         -1.65894      -13.89656       48.15606
H         -1.46988      -16.83919       47.22876
H         -2.96271      -15.96637       47.70074
H         -0.81639      -18.29853       48.88818
H         -1.06709      -17.97980       50.61260
N          0.80936      -14.66262       49.00472
C          2.22780      -14.73349       49.33009
C          3.07422      -13.66506       48.66305
O          2.70599      -12.49967       48.67446
H          0.15723      -14.58871       49.79827
H          2.61754      -15.74203       49.07286
H          2.33222      -14.61795       50.43019
N          4.28436      -14.00767       48.13140
C          5.21734      -13.06582       47.50927
C          4.78681      -12.70822       46.09561
O          3.73670      -13.15397       45.65597
C          6.64318      -13.68336       47.51199
C          7.19941      -13.75752       48.91521
C          7.49171      -14.99071       49.51812
C          7.44764      -12.56994       49.62957
C          8.01237      -15.03347       50.81736
C          7.96897      -12.61502       50.92361
C          8.25146      -13.84432       51.52394
O          8.75275      -13.86929       52.77528
H          4.58963      -14.98792       48.23703
H          5.25383      -12.12123       48.09335
H          7.36574      -13.07020       46.93750
H          6.60860      -14.68285       47.02436
H          7.31442      -15.91696       48.98680
H          7.24387      -11.60466       49.18252
H          8.23055      -15.99029       51.27378
H          8.15466      -11.69163       51.45864
H          8.96169      -14.69698       53.23060
N          5.57436      -11.88496       45.33401
C          5.30160      -11.44097       43.96730
C          5.23647      -12.62518       43.00130
O          4.43076      -13.51576       43.20740
C          4.02573      -10.54712       43.89606
C          3.83970       -9.89507       42.49447
C          4.03346       -9.46225       44.99255
C          4.93057       -8.89504       42.07854
H          6.44071      -11.51636       45.75291
H          6.15513      -10.79624       43.67303
H          3.13536      -11.18428       44.08460
H          2.86943       -9.35275       42.48252
H          3.78738      -10.68804       41.72166
H          3.11982       -8.83456       44.91984
H          4.03652       -9.92325       46.00220
H          4.92872       -8.81131       44.91570
H          5.92708       -9.37402       42.00912
H          4.68916       -8.48477       41.07579
H          4.98462       -8.03964       42.78292
N          6.02025      -12.67166       41.88379
C          5.94122      -13.76095       40.90988
C          7.30287      -14.23170       40.46584
O          8.12316      -13.41017       40.08312
C          5.19769      -13.31038       39.65006
O          3.86578      -13.03898       39.96837
H          6.62982      -11.86827       41.67157
H          5.36832      -14.62262       41.30670
H          5.24554      -14.14319       38.90347
H          5.66610      -12.41054       39.19826
H          3.29982      -13.47628       39.27885
N          7.52081      -15.56904       40.29199
C          8.67189      -16.06242       39.54208
C          8.49455      -17.52146       39.11149
O          7.70719      -18.22812       39.72194
C          9.97102      -15.89260       40.33985
H          6.76509      -16.21847       40.55201
H          8.68582      -15.45358       38.61534
H          9.92096      -16.48713       41.27677
H         10.84326      -16.24077       39.75183
H         10.14258      -14.82992       40.60567
N          9.15135      -18.06401       38.03705
C         10.07269      -17.35143       37.15553
C         11.44004      -18.01654       37.14237
O         11.53408      -19.17046       37.54134
C          9.47151      -17.30894       35.74513
H          8.94838      -19.05086       37.80649
H         10.21747      -16.31912       37.50422
H          9.30645      -18.33951       35.36400
H          8.49215      -16.78396       35.77470
H         10.12664      -16.77598       35.02819
N         12.58360      -17.35983       36.77967
C         12.65928      -15.94464       36.41626
C         13.04470      -15.08894       37.61247
O         13.03448      -13.87175       37.47240
C         13.68093      -15.73363       35.28205
C         13.26866      -16.41587       33.97418
C         14.32170      -16.19914       32.92435
O         15.56820      -16.67558       33.11039
O         14.05507      -15.59267       31.89923
H         13.47571      -17.86782       36.88941
H         11.67803      -15.56521       36.07631
H         14.67053      -16.11815       35.61725
H         13.78449      -14.64457       35.07675
H         12.30132      -15.98525       33.63247
H         13.13786      -17.50791       34.12570
N         13.38292      -15.62403       38.81949
C         13.71009      -14.79036       39.95488
H         14.56917      -14.13059       39.70874
H         12.83109      -14.16830       40.22856
H         13.98264      -15.42352       40.82518
H         13.41672      -16.64477       38.95409
Ca         1.79883      -15.41550       44.22049
O          5.09087      -16.08971       44.39661
H          5.73908      -15.95741       43.65991
H          5.35129      -16.95308       44.80385
O          3.27449      -16.40365       42.00687
H          4.18194      -16.68771       41.73717
H          3.21994      -15.45327       41.73630
O          3.07875      -17.01291       46.52266
H          2.32054      -17.34086       47.06813
H          3.88241      -17.21064       47.06585

Ca 1.0



