%chk=apoCaM-CA-Ng.loop2.water3.frame446.chk
%nprocshared=20
%mem=10GB
%nosave
#b3lyp/svp scf=(tight,noincore,xqc) Test 
#IOP(5/87=12) Density=Current Pop=(MK,readradii) iop(6/33=2) iop(6/42=6)

apoCaM-CA-Ng.loop2.water3.frame446 

   -2  1 
C         95.93645       80.59005       69.32119
C         97.35641       81.04649       69.16274
O         98.01978       81.28186       70.16237
H         95.25640       81.31854       68.83069
H         95.80677       79.59278       68.85340
H         95.66164       80.52258       70.39634
N         97.89087       81.20760       67.91776
C         99.24328       81.71472       67.69641
C         99.32529       83.10734       68.27531
O         98.52810       83.94891       67.87976
C         99.56920       81.73500       66.19125
C        100.97877       82.19295       65.93828
O        101.19075       83.18716       65.26292
O        102.01533       81.50387       66.45316
H         97.29935       80.98225       67.10246
H         99.96732       81.03608       68.20025
H         98.85088       82.39990       65.66065
H         99.45891       80.70905       65.77949
N        100.21570       83.41228       69.26448
C        100.11306       84.66910       69.99069
C         98.78508       84.62713       70.71829
O         98.60476       83.76112       71.56418
C        101.27702       84.85053       70.97081
H        100.91476       82.71101       69.55465
H        100.15500       85.51189       69.26429
H        101.30886       84.02502       71.71321
H        102.23778       84.86199       70.41200
H        101.17524       85.81773       71.50825
N         97.77241       85.45974       70.35510
C         96.40414       85.30233       70.83397
C         95.96772       86.48476       71.68499
O         94.81252       86.52413       72.08593
C         95.49998       85.06257       69.60587
C         94.09286       84.68647       69.98018
O         93.15295       85.36690       69.60278
O         93.86264       83.58298       70.71815
H         97.95553       86.19171       69.65071
H         96.31806       84.40189       71.48225
H         95.91401       84.21313       69.01842
H         95.50408       85.96580       68.95704
N         96.86180       87.43365       72.09237
C         96.53607       88.49169       73.03285
C         95.96218       87.91266       74.30469
O         94.93144       88.38965       74.75511
H         97.84645       87.37551       71.79618
H         95.81930       89.21061       72.57902
H         97.47071       89.04038       73.27819
N         96.55322       86.83279       74.89455
C         96.01326       86.14395       76.06649
C         96.88309       84.93978       76.39013
O         97.15737       84.15989       75.48621
C         94.57650       85.61135       75.82701
C         93.97424       85.14781       77.13501
N         93.67966       83.84802       77.34991
O         93.75855       85.96615       78.01696
H         97.41653       86.46834       74.46111
H         95.98610       86.86269       76.91529
H         94.60256       84.79409       75.07144
H         93.89110       86.38626       75.43611
H         93.88900       83.14271       76.63656
H         93.26889       83.54355       78.24503
N         97.27139       84.66883       77.66591
C         98.04387       83.48270       78.00544
C         97.19069       82.45198       78.70396
O         96.00700       82.67501       78.91734
H         96.95487       85.28370       78.43098
H         98.90805       83.77773       78.63752
H         98.44920       82.98969       77.09637
N         97.74763       81.26580       79.07535
C         96.98429       80.21321       79.74480
C         95.89770       79.59969       78.85342
O         95.06234       78.88522       79.39503
C         97.91699       79.11704       80.33790
C         98.73348       78.33738       79.29275
O         98.76847       79.67220       81.31120
H         98.75514       81.14000       78.90578
H         96.47142       80.68783       80.61155
H         97.27892       78.37219       80.86220
H         99.48716       80.17694       80.84938
H         99.35291       77.56709       79.79804
H         98.06133       77.81888       78.59383
H         99.40959       78.99844       78.71302
N         95.83896       79.80776       77.50223
C         94.78415       79.27301       76.63805
C         94.11014       80.41192       75.89925
O         94.78308       81.15201       75.18956
C         95.35110       78.24006       75.61357
C         95.96573       76.99514       76.29776
C         94.28761       77.78993       74.58675
C         94.98358       76.12844       77.09950
H         96.57929       80.36438       77.04771
H         94.01049       78.74909       77.23687
H         96.16513       78.73650       75.03890
H         96.77479       77.32393       76.96558
H         96.42763       76.35213       75.51755
H         94.72072       77.05140       73.87973
H         93.40114       77.34501       75.08405
H         93.93860       78.64200       73.97613
H         94.51832       76.69341       77.93042
H         94.18624       75.71563       76.44829
H         95.53108       75.27073       77.54186
N         92.75779       80.55872       75.96650
C         91.99853       81.47123       75.11372
C         90.57707       81.69673       75.66644
O         89.71764       82.16800       74.94064
C         92.03159       80.86385       73.68735
C         91.53269       81.70961       72.55912
O         91.59004       81.19944       71.31340
O         91.10278       82.83901       72.73524
H         92.24171       79.86602       76.52987
H         92.48912       82.46557       75.07493
H         91.47629       79.90157       73.69245
H         93.08465       80.65993       73.41165
N         90.28972       81.46570       76.98653
C         88.98025       81.67807       77.59928
C         87.97281       80.69739       77.01838
O         88.26369       79.50872       77.03038
C         89.11326       81.48870       79.13477
C         87.90867       81.96040       79.92121
C         88.02695       83.09739       80.74329
C         86.67337       81.28941       79.86345
C         86.93315       83.56239       81.47555
C         85.57974       81.75985       80.59910
C         85.70910       82.89635       81.40180
H         91.04524       81.16746       77.61546
H         88.68375       82.73495       77.43569
H         89.98295       82.10676       79.45058
H         89.35811       80.43527       79.39511
H         88.96592       83.63279       80.81419
H         86.54938       80.40409       79.25594
H         87.03672       84.44132       82.09890
H         84.63044       81.24300       80.54770
H         84.86273       83.26045       81.96942
N         86.75414       81.08458       76.52586
C         85.76309       80.13867       76.04100
C         85.96711       79.79685       74.57128
O         85.22942       78.96234       74.06500
C         84.45233       80.90722       76.23946
C         84.87172       82.32035       75.86562
C         86.22813       82.43688       76.56149
H         85.74503       79.20613       76.64834
H         83.57627       80.50338       75.68711
H         84.20916       80.91300       77.32693
H         85.03449       82.33849       74.76427
H         84.15177       83.12537       76.12295
H         86.86880       83.17405       76.03237
H         86.09678       82.73476       77.62259
N         86.89109       80.44798       73.80456
C         86.99226       80.25332       72.36461
C         87.77506       78.99017       72.01194
O         87.83515       78.65557       70.83751
C         87.54073       81.55767       71.72876
C         87.46865       81.58937       70.19528
C         87.65094       82.98470       69.64734
O         88.74173       83.30429       68.92853
O         86.79484       83.83263       69.84182
H         87.44939       81.20158       74.22649
H         85.95818       80.14565       71.96578
H         88.58255       81.75588       72.06407
H         86.89541       82.37943       72.11029
H         86.47050       81.24327       69.84978
H         88.23806       80.90564       69.78109
N         88.37727       78.22139       72.97003
C         89.09307       76.99387       72.67879
H         90.14588       77.09130       73.01669
H         88.61833       76.15342       73.22879
H         89.09189       76.74342       71.59731
H         88.33683       78.49755       73.96088
Ca        90.61288       82.35841       69.68055
O         92.53635       82.45317       67.11788
H         93.28877       83.09487       67.16767
H         92.92477       81.59129       67.41256
O         90.38815       85.87490       71.24215
H         89.89185       86.72126       71.10780
H         90.82509       85.98096       72.12449
O         90.45824       85.15600       67.49607
H         90.12434       84.69308       66.68670
H         90.96075       85.93483       67.14907

Ca 1.0



