%chk=apoCaM-CA-Ng.loop1.water1.frame1266.chk
%nprocshared=20
%mem=10GB
%nosave
#b3lyp/svp scf=(tight,noincore,xqc) Test 
#IOP(5/87=12) Density=Current Pop=(MK,readradii) iop(6/33=2) iop(6/42=6)

apoCaM-CA-Ng.loop1.water1.frame1266 

   0  1 
C         46.53838       36.53622       27.52863
C         47.00092       37.95649       27.39352
O         46.17299       38.82828       27.18196
H         45.43990       36.46200       27.37659
H         47.04564       35.90310       26.77083
H         46.78403       36.16133       28.54409
N         48.32318       38.25608       27.54068
C         48.88767       39.60309       27.45019
C         49.11350       40.01270       25.99530
O         50.25206       40.17622       25.57603
C         50.21546       39.67012       28.24633
C         50.05425       39.41694       29.72423
O         51.13884       39.46212       30.52018
O         48.96016       39.18669       30.21627
H         48.95589       37.48080       27.79394
H         48.20784       40.34238       27.92992
H         50.65057       40.68774       28.13593
H         50.93709       38.93219       27.83230
N         48.05519       40.24564       25.17471
C         48.18289       40.70197       23.79661
C         48.93976       42.02180       23.70582
O         49.89698       42.06501       22.94574
C         46.81240       40.84385       23.08404
C         45.88781       39.61240       23.17407
C         46.55584       38.29642       22.74268
C         45.63318       37.07875       22.91691
N         44.47329       37.11942       22.02606
H         47.11463       40.13057       25.55583
H         48.75392       39.93488       23.22804
H         47.01521       41.06077       22.01095
H         46.24523       41.70507       23.49182
H         45.00097       39.82291       22.54055
H         45.52435       39.49588       24.21534
H         47.43372       38.11116       23.39668
H         46.90740       38.36605       21.69074
H         45.29521       37.01167       23.97599
H         46.22334       36.16329       22.69150
H         44.78889       37.17846       21.03089
H         43.92128       36.24060       22.15317
H         43.85279       37.92727       22.25497
N         48.63304       43.14760       24.42229
C         47.61668       43.26743       25.47019
C         48.27578       43.48799       26.82172
O         49.46383       43.77244       26.89016
C         46.52924       44.31248       25.13933
C         46.95797       45.39008       24.18163
O         47.97160       46.24112       24.41853
O         46.37545       45.48220       23.11214
H         49.22763       43.97551       24.26013
H         47.06770       42.32892       25.60869
H         46.08126       44.72975       26.06666
H         45.70534       43.77278       24.61965
N         47.57147       43.20194       27.95659
C         48.18793       43.14000       29.27044
C         48.51390       44.48640       29.85479
O         48.18883       45.50999       29.26800
H         46.59424       42.88309       27.87049
H         49.10512       42.51474       29.20895
H         47.49083       42.64172       29.97874
N         49.18690       44.54334       31.03800
C         49.51801       45.78513       31.72913
C         49.19395       45.66613       33.22704
O         49.02940       44.54919       33.70272
C         51.02009       46.06521       31.52411
C         51.33557       46.25861       30.06576
O         52.10761       45.50434       29.49584
O         50.76357       47.26722       29.38076
H         49.52510       43.65481       31.44242
H         48.93017       46.61889       31.29056
H         51.60952       45.21269       31.92981
H         51.34980       46.97583       32.05395
N         49.10961       46.74003       34.07050
C         49.13032       48.12527       33.63362
C         47.88275       48.45492       32.85315
O         46.93823       47.67943       32.85710
H         48.97436       46.56776       35.07839
H         50.03511       48.32464       33.03574
H         49.16370       48.80910       34.50917
N         47.83350       49.59684       32.11828
C         46.68421       49.96215       31.29882
C         46.32433       48.84698       30.32451
O         47.18524       48.36139       29.60637
C         46.95755       51.27107       30.51756
C         47.02056       52.48552       31.44839
O         45.92752       51.49573       29.59044
H         48.66660       50.20346       32.11533
H         45.80557       50.14528       31.95510
H         47.93388       51.19537       29.98604
H         46.23328       51.13352       28.71996
H         47.21258       53.40262       30.85139
H         46.04825       52.61062       31.97339
H         47.82476       52.38080       32.20297
N         45.01404       48.47489       30.21545
C         44.43785       47.53789       29.25611
C         44.84973       47.90920       27.84121
O         45.94436       47.55329       27.42671
C         44.70559       46.03678       29.57746
C         44.39218       45.72249       31.06286
C         43.85979       45.15109       28.63321
C         44.65536       44.26648       31.45960
H         44.33109       48.96940       30.81020
H         43.33468       47.67151       29.34580
H         45.77484       45.81593       29.40444
H         43.33542       45.97338       31.29757
H         45.04707       46.35193       31.69918
H         44.07944       45.37570       27.56944
H         44.07874       44.07491       28.77683
H         42.77562       45.32342       28.81101
H         45.70332       43.98230       31.22878
H         44.48706       44.14448       32.55018
H         43.96071       43.57476       30.94085
N         44.01736       48.63649       27.04634
C         44.34489       48.98927       25.66800
C         44.52305       50.49512       25.46491
O         44.82577       50.88413       24.34501
C         43.29456       48.38071       24.70530
C         41.87868       48.92709       24.91908
O         43.26123       46.98479       24.86049
H         43.11835       48.95202       27.43855
H         45.31416       48.53811       25.38267
H         43.57858       48.62528       23.65386
H         44.06619       46.62251       24.40816
H         41.85846       50.02866       24.78898
H         41.19065       48.47245       24.17532
H         41.49450       48.67147       25.92832
N         44.36774       51.40353       26.47615
C         44.52464       52.84536       26.27273
C         45.96158       53.19462       25.90814
O         46.84219       53.01296       26.73746
C         44.09740       53.62098       27.55104
C         44.24713       55.14416       27.42208
O         42.77548       53.29899       27.90446
H         44.09776       51.06940       27.41194
H         43.84129       53.15057       25.44817
H         44.75050       53.31114       28.39117
H         42.18616       53.59600       27.16390
H         43.93632       55.62894       28.37136
H         45.30606       55.41999       27.23565
H         43.61871       55.53085       26.59334
N         46.26404       53.70553       24.67496
C         47.60538       54.11536       24.25297
C         48.59323       52.98981       24.50231
O         49.57506       53.16756       25.21189
C         48.01576       55.43523       24.94860
C         47.03985       56.60384       24.69956
C         46.93095       57.00946       23.22034
C         46.00125       58.21864       23.04772
N         45.89318       58.59909       21.63922
H         45.50778       53.78864       23.97856
H         47.59114       54.29831       23.15828
H         49.02684       55.73710       24.59628
H         48.07252       55.26832       26.04601
H         47.41041       57.47812       25.27811
H         46.03207       56.34039       25.08540
H         46.51952       56.16918       22.62368
H         47.94106       57.26782       22.83421
H         46.39818       59.07981       23.63010
H         44.98906       57.96807       23.43682
H         45.49549       57.80810       21.08206
H         45.25670       59.42438       21.55477
H         46.83406       58.85761       21.26243
N         48.31901       51.75882       23.99959
C         49.01619       50.55744       24.43332
C         48.03376       49.39854       24.42669
O         47.78410       48.88812       25.50781
C         50.33782       50.30377       23.66635
C         51.08998       49.04421       24.15030
C         51.55423       49.12196       25.58558
O         51.14326       48.21272       26.49939
O         52.34170       49.99267       25.92019
H         47.43518       51.66286       23.47682
H         49.30565       50.70070       25.49786
H         51.00311       51.18743       23.77571
H         50.15411       50.17633       22.58472
H         51.98965       48.90526       23.51268
H         50.44352       48.15528       24.00283
N         47.38201       48.92376       23.32114
C         47.50047       49.40666       21.96129
H         48.17511       50.26752       21.84673
H         47.86293       48.58086       21.31383
H         46.49899       49.72493       21.60429
H         46.71651       48.14960       23.45269
Ca        49.49775       46.74213       25.99524
O         49.36051       49.92054       28.15310
H         49.35089       50.88152       27.91319
H         49.82068       49.88917       29.02847

Ca 1.0



