%chk=apoCaM-CA-Ng.loop3.water3.frame652.chk
%nprocshared=20
%mem=10GB
%nosave
#b3lyp/svp scf=(tight,noincore,xqc) Test 
#IOP(5/87=12) Density=Current Pop=(MK,readradii) iop(6/33=2) iop(6/42=6)

apoCaM-CA-Ng.loop3.water3.frame652 

   0  1 
C         85.03716       71.36532        4.72830
C         85.28120       72.80861        5.05071
O         84.38694       73.62348        4.86916
H         84.00755       71.21569        4.33852
H         85.76971       71.01375        3.97420
H         85.14946       70.76358        5.65647
N         86.47020       73.18893        5.59412
C         86.70453       74.54246        6.07372
C         86.80401       75.53913        4.92658
O         87.69185       75.41695        4.09427
C         87.94693       74.58076        6.98574
C         88.04143       75.83077        7.82446
O         89.00592       75.92153        8.75443
O         87.23694       76.74229        7.71040
H         87.18230       72.46201        5.76704
H         85.85222       74.78684        6.73085
H         88.87485       74.42861        6.39332
H         87.86608       73.74450        7.70918
N         85.90639       76.55936        4.83471
C         85.90691       77.56899        3.78115
C         87.19079       78.37911        3.75933
O         87.73621       78.57120        2.68140
C         84.64743       78.46329        3.88076
C         84.54637       79.36178        5.13314
C         83.18283       80.07744        5.21701
C         82.03389       79.11553        5.58298
N         80.74326       79.80164        5.58703
H         85.16392       76.60539        5.54241
H         85.80668       77.05149        2.79993
H         83.78608       77.76949        3.83383
H         84.59188       79.11969        2.98374
H         85.34539       80.13125        5.06744
H         84.70047       78.78638        6.06722
H         82.97651       80.59054        4.25258
H         83.23421       80.85087        6.01457
H         82.23205       78.70072        6.59481
H         81.96727       78.26995        4.87024
H         80.52336       80.14459        4.62352
H         80.00033       79.12464        5.87770
H         80.75467       80.60325        6.25756
N         87.75573       78.84583        4.91079
C         88.98129       79.64036        4.93258
C         90.17397       78.88199        5.49586
O         91.25341       79.45816        5.48500
C         88.74261       80.96154        5.69821
C         88.28855       80.75909        7.12190
O         89.05658       80.08764        8.00081
O         87.22027       81.22005        7.48976
H         87.31164       78.60867        5.81004
H         89.28086       79.91398        3.89713
H         87.97206       81.55041        5.15459
H         89.67854       81.56164        5.70720
N         90.09504       77.59186        5.94288
C         91.25951       76.85053        6.41070
C         91.58911       77.09125        7.87748
O         91.75337       76.12247        8.60602
H         89.21355       77.07744        5.83244
H         92.13533       77.09872        5.77309
H         91.07976       75.76150        6.26934
N         91.75207       78.34917        8.37217
C         92.21866       78.64697        9.72398
C         91.21687       78.08443       10.78868
O         90.21755       79.01543       11.06900
C         92.40652       80.19758        9.81227
C         93.17605       80.77759       10.97001
N         93.25838       82.12224       11.09466
O         93.75640       80.06688       11.77132
H         91.59652       79.13795        7.73917
H         93.20652       78.14630        9.82682
H         91.40320       80.67613        9.76953
H         92.95780       80.54039        8.90955
H         92.77956       82.74168       10.42354
H         93.79546       82.54660       11.86459
N         91.86169       77.55674       12.01135
C         91.06675       77.55203       13.25737
C         89.91960       76.56093       13.26615
O         90.12760       75.41006       12.90917
H         92.73779       78.07462       12.21624
H         90.73686       78.57844       13.53168
H         91.75053       77.21833       14.06895
N         88.69645       76.91959       13.76660
C         87.58133       75.97934       13.89561
C         87.05071       75.56413       12.49262
O         86.54824       76.70690       11.87124
C         86.41748       76.58881       14.73064
C         86.77624       77.00312       16.14131
C         87.28798       76.07432       17.06480
C         86.54904       78.32654       16.56125
C         87.56501       76.46420       18.38099
C         86.82119       78.71152       17.87713
C         87.32726       77.78419       18.79201
O         87.57308       78.17074       20.06059
H         88.57738       77.88028       14.12391
H         87.94610       75.07660       14.43303
H         85.60759       75.83363       14.81997
H         85.99764       77.46275       14.18674
H         87.46348       75.04714       16.77333
H         86.14357       79.06055       15.87612
H         87.95483       75.73806       19.08339
H         86.62867       79.73097       18.18825
H         87.91093       77.55946       20.73056
N         85.96992       74.56665       12.61539
C         85.39866       73.97646       11.37516
C         84.71157       75.02196       10.49752
O         85.38738       75.83639        9.89016
C         86.40895       73.11741       10.55007
C         85.76427       72.53490        9.25569
C         87.02515       71.98274       11.38880
C         84.53393       71.64674        9.47109
H         86.26401       73.80305       13.26619
H         84.60711       73.28516       11.73462
H         87.24604       73.77271       10.22223
H         86.52824       71.94699        8.70272
H         85.45707       73.36854        8.59226
H         87.61566       72.38535       12.23595
H         86.24081       71.30907       11.79220
H         87.72458       71.38501       10.76622
H         83.70809       72.21220        9.94745
H         84.16499       71.29267        8.48541
H         84.77838       70.76039       10.08922
N         83.35196       75.04191       10.38764
C         82.60699       76.05209        9.63293
C         81.13974       75.99245       10.02636
O         80.26638       75.87052        9.17629
C         82.76983       75.87486        8.10706
O         84.08886       76.05431        7.69879
H         82.81839       74.35053       10.93656
H         82.96354       77.06153        9.93826
H         82.12509       76.59418        7.55639
H         82.44377       74.85601        7.80825
H         84.26808       77.02819        7.73284
N         80.81391       76.05557       11.34489
C         79.45432       75.99136       11.85742
C         79.21537       77.15041       12.81547
O         80.14266       77.49836       13.53509
C         79.27341       74.66975       12.60241
H         81.58280       76.10921       12.03232
H         78.71702       75.97241       11.03489
H         79.98493       74.58912       13.45060
H         78.23627       74.58634       12.98850
H         79.44980       73.82324       11.90361
N         78.00241       77.74527       13.00531
C         76.77296       77.41061       12.29746
C         75.58150       77.97608       13.06707
O         75.54024       79.18401       13.25526
C         76.77395       78.01025       10.88148
H         77.94934       78.44263       13.76533
H         76.68917       76.31189       12.22233
H         75.82910       77.74084       10.36182
H         76.85065       79.11749       10.92802
H         77.61470       77.64725       10.26235
N         74.55554       77.20861       13.54660
C         74.44026       75.76318       13.36854
C         75.46215       74.98158       14.18832
O         75.55363       73.77878       13.98652
C         73.02949       75.27026       13.76390
C         71.92196       75.89955       12.90405
C         70.57595       75.37555       13.31187
O         70.12171       75.58017       14.56349
O         69.88327       74.76993       12.51003
H         73.79158       77.70585       14.03050
H         74.58050       75.53274       12.28891
H         72.84983       75.49709       14.83887
H         72.97857       74.16682       13.62603
H         72.11023       75.66016       11.83430
H         71.90874       77.00295       13.01702
N         76.23227       75.57225       15.14964
C         77.18383       74.84043       15.96378
H         78.19312       75.28418       15.84012
H         76.88533       74.91346       17.03108
H         77.24013       73.76464       15.69418
H         76.13377       76.57695       15.34809
Ca        88.31828       77.81771       11.04569
O         85.53729       79.34076       11.65695
H         84.65882       78.88486       11.68749
H         85.39286       80.19763       12.12979
O         88.05662       80.94132       11.55037
H         88.53590       81.33066       10.77647
H         88.73969       80.88132       12.26484
O         84.85124       79.20840        8.89390
H         84.25939       79.99128        8.76708
H         85.61417       79.36660        8.28467

Ca 1.0



