%chk=apoCaM-CA-Ng.loop3.water5.frame320.chk
%nprocshared=20
%mem=10GB
%nosave
#b3lyp/svp scf=(tight,noincore,xqc) Test 
#IOP(5/87=12) Density=Current Pop=(MK,readradii) iop(6/33=2) iop(6/42=6)

apoCaM-CA-Ng.loop3.water5.frame320 

   0  1 
C         61.63751       81.78526       58.88570
C         63.01426       81.31096       59.23711
O         63.51515       80.40088       58.59498
H         60.96859       81.64392       59.76129
H         61.66745       82.86219       58.61965
H         61.22820       81.20967       58.02832
N         63.68429       81.89200       60.27070
C         64.99936       81.47703       60.74692
C         64.92154       80.06226       61.30236
O         65.66881       79.18963       60.87969
C         66.08471       81.63959       59.65451
C         66.10322       83.03171       59.08656
O         66.33851       84.08954       59.88561
O         65.90546       83.20860       57.89463
H         63.22632       82.66867       60.77291
H         65.27754       82.14301       61.59515
H         65.91422       80.91574       58.82964
H         67.08282       81.41940       60.09149
N         64.00503       79.77369       62.27264
C         63.86401       78.45119       62.88487
C         63.44590       77.35277       61.90924
O         63.44311       76.19712       62.31130
C         62.85281       78.50017       64.05535
C         61.40263       78.76820       63.59813
C         60.45383       78.84324       64.79791
C         59.00599       79.07373       64.34357
N         58.10935       79.17680       65.49414
H         63.41471       80.54743       62.61355
H         64.85872       78.18245       63.30522
H         63.17448       79.29067       64.76826
H         62.87730       77.52772       64.59516
H         61.06668       77.94801       62.92658
H         61.34376       79.72454       63.03690
H         60.77015       79.68069       65.45732
H         60.50655       77.89300       65.37326
H         58.68004       78.22739       63.69792
H         58.94481       80.01197       63.74827
H         58.38706       79.98896       66.09202
H         57.13165       79.32582       65.15498
H         58.14267       78.29624       66.05757
N         63.04486       77.62701       60.63552
C         62.62712       76.59784       59.69119
C         63.74183       75.58053       59.45625
O         64.90750       75.94599       59.39928
C         62.12652       77.25340       58.38043
C         61.88908       76.24166       57.29993
O         62.85414       75.67197       56.83487
O         60.68860       75.93052       56.78759
H         63.01160       78.60492       60.32363
H         61.75263       76.05417       60.11153
H         62.88967       77.96219       57.99063
H         61.20085       77.82922       58.59476
N         63.41192       74.26719       59.27476
C         64.36678       73.19265       59.05862
C         65.22854       73.39509       57.82773
O         66.44091       73.45278       57.97434
H         62.41522       74.00606       59.30482
H         63.81041       72.23531       58.94642
H         65.00966       73.10329       59.96088
N         64.68125       73.49907       56.57992
C         65.48416       73.67634       55.36702
C         65.77710       75.14309       55.01386
O         66.29158       75.38962       53.93147
C         64.91009       72.87672       54.16977
C         63.47776       73.20221       53.70075
N         63.31190       72.76709       52.31692
O         63.18529       74.55919       53.77371
H         63.65755       73.42918       56.48586
H         66.48583       73.21615       55.52228
H         64.92820       71.79022       54.40743
H         65.61031       73.02650       53.31865
H         63.56515       71.75999       52.21308
H         62.31575       72.89284       52.03901
N         65.58307       76.15593       55.90373
C         65.94137       77.54605       55.64919
C         65.03878       78.23037       54.64209
O         65.52582       78.80679       53.68082
H         65.24235       75.93494       56.84574
H         67.01143       77.61739       55.35478
H         65.81966       78.10825       56.60059
N         63.69515       78.22551       54.84435
C         62.70091       78.93272       54.04574
C         61.96122       77.93255       53.18501
O         61.30572       77.05421       53.71273
C         61.73583       79.66428       55.01272
C         60.40830       80.02741       54.38706
C         60.31242       80.94845       53.33398
C         59.24068       79.39512       54.85614
C         59.06469       81.22869       52.76000
C         58.00328       79.66992       54.27880
C         57.90959       80.58726       53.22620
O         56.71851       80.85115       52.65269
H         63.34888       77.66635       55.62727
H         63.18423       79.67053       53.36854
H         62.23557       80.54893       55.46190
H         61.51606       78.96764       55.85116
H         61.19898       81.43910       52.95356
H         59.28680       78.67197       55.66215
H         58.99634       81.93420       51.94245
H         57.12064       79.16224       54.64799
H         55.90417       80.41217       52.93935
N         62.05436       78.00738       51.83060
C         61.48655       77.02143       50.92124
C         62.61158       76.13030       50.41627
O         62.36510       74.94585       50.24007
C         60.69195       77.72630       49.77447
C         59.50433       78.57073       50.30352
C         60.19177       76.74833       48.69619
C         58.35907       77.76393       50.92627
H         62.62451       78.76219       51.42200
H         60.79170       76.34514       51.46192
H         61.38943       78.43102       49.26946
H         59.07807       79.15596       49.45939
H         59.88350       79.29444       51.04887
H         59.61794       77.29244       47.91567
H         61.04185       76.27673       48.18387
H         59.55500       75.94908       49.12844
H         57.56183       78.45452       51.26931
H         57.89861       77.07766       50.18546
H         58.71402       77.18300       51.79573
N         63.88979       76.58904       50.23618
C         64.97144       75.71857       49.78592
C         64.75865       75.23841       48.35632
O         65.44575       74.31815       47.94224
C         66.32864       76.42466       49.90993
O         66.35411       77.56622       49.09268
H         64.11503       77.57016       50.44754
H         64.99105       74.83196       50.46082
H         67.15096       75.73923       49.61197
H         66.47380       76.69988       50.98211
H         66.88643       78.25354       49.57105
N         63.80457       75.80499       47.55813
C         63.43373       75.32471       46.23502
C         62.94601       73.89070       46.32789
O         63.37384       73.04248       45.55139
C         64.57127       75.53109       45.22623
H         63.26381       76.60486       47.90827
H         62.57237       75.94137       45.89129
H         64.23917       75.23204       44.20961
H         64.85652       76.60448       45.19882
H         65.46649       74.93397       45.49587
N         62.07503       73.54346       47.31545
C         61.57377       72.19915       47.52965
C         60.09446       72.21730       47.86553
O         59.52980       73.28215       48.09701
C         62.35807       71.54668       48.66821
H         61.81181       74.25844       48.00226
H         61.72224       71.59539       46.60639
H         62.01707       70.50425       48.83674
H         63.43850       71.52468       48.40907
H         62.23096       72.12704       49.60643
N         59.38938       71.05449       47.86046
C         57.95275       70.94751       48.08944
C         57.20098       71.95389       47.22628
O         56.37190       72.69471       47.73752
C         57.59048       71.08951       49.58758
C         58.34716       70.09484       50.47829
C         57.82099       70.14250       51.88565
O         57.36799       69.13502       52.40518
O         57.82764       71.29696       52.57619
H         59.88641       70.18893       47.59308
H         57.64534       69.92478       47.77697
H         56.49837       70.89762       49.68946
H         57.80170       72.12194       49.94453
H         59.42983       70.34739       50.48095
H         58.22423       69.06293       50.08293
N         57.50576       72.07472       45.90405
C         56.90572       73.07094       45.03913
H         56.13009       73.67381       45.55711
H         57.69670       73.76462       44.68189
H         56.44075       72.57110       44.16606
H         58.23342       71.46856       45.49751
Ca        61.19069       74.75707       54.91772
O         59.97998       73.91016       52.05420
H         59.23107       73.42882       52.48325
H         60.04669       73.51367       51.14953
O         58.14307       75.69102       53.82800
H         57.80933       76.59631       54.04932
H         57.51064       75.35262       53.14531
O         60.51457       71.81296       54.68903
H         61.33247       71.34129       54.39321
H         59.77913       71.35073       54.21781
O         58.05757       74.45124       56.48548
H         57.71891       73.75170       57.09817
H         57.34185       75.13549       56.46817
O         60.94645       72.77847       57.45244
H         60.60661       71.84920       57.47700
H         60.37664       73.26796       58.09726

Ca 1.0



