%chk=apoCaM-CA-Ng.loop2.water4.frame667.chk
%nprocshared=20
%mem=10GB
%nosave
#b3lyp/svp scf=(tight,noincore,xqc) Test 
#IOP(5/87=12) Density=Current Pop=(MK,readradii) iop(6/33=2) iop(6/42=6)

apoCaM-CA-Ng.loop2.water4.frame667 

   -2  1 
C         -4.83296       46.90461      -14.02583
C         -6.31592       46.84620      -14.23541
O         -6.78466       47.27931      -15.27879
H         -4.32905       47.35094      -14.91039
H         -4.60680       47.52425      -13.13388
H         -4.43664       45.87876      -13.87247
N         -7.11910       46.29584      -13.28071
C         -8.56658       46.17710      -13.42460
C         -8.94382       44.71037      -13.55636
O         -8.13525       43.85040      -13.23761
C         -9.24949       46.86570      -12.22500
C        -10.74911       46.86586      -12.30663
O        -11.47602       46.25914      -11.34886
O        -11.31597       47.42984      -13.22899
H         -6.67956       45.91648      -12.42694
H         -8.88880       46.67924      -14.36300
H         -8.90935       47.92314      -12.17139
H         -8.93302       46.35657      -11.28788
N        -10.13841       44.35341      -14.11262
C        -10.51254       42.96423      -14.39799
C         -9.54762       42.35628      -15.43095
O         -8.70138       43.09645      -15.91591
C        -11.96114       42.95336      -14.90678
H        -10.79010       45.10618      -14.38107
H        -10.46319       42.39622      -13.44509
H        -12.36180       41.93925      -15.04022
H        -12.61720       43.45121      -14.16139
H        -12.03674       43.50291      -15.86970
N         -9.53840       41.04940      -15.84459
C        -10.43637       39.96421      -15.44996
C        -10.45519       39.73878      -13.95033
O         -9.40136       39.60085      -13.34701
C        -10.08434       38.66186      -16.21680
C         -8.67797       38.15173      -16.02349
O         -8.25874       37.71900      -14.82123
O         -7.92143       38.08335      -16.97915
H         -8.80142       40.80880      -16.52749
H        -11.46120       40.19561      -15.79315
H        -10.23007       38.86769      -17.30116
H        -10.79759       37.85775      -15.93391
N        -11.64694       39.67689      -13.28659
C        -11.76149       39.44608      -11.85482
C        -12.46119       40.59850      -11.16743
O        -12.85760       41.53920      -11.84252
H        -12.52375       39.77682      -13.82062
H        -10.75872       39.33590      -11.39170
H        -12.33086       38.50669      -11.68882
N        -12.61640       40.65555       -9.81245
C        -12.16147       39.62478       -8.87954
C        -10.82831       40.01980       -8.26659
O        -10.29975       41.06970       -8.60456
C        -13.23847       39.32094       -7.80958
C        -13.44260       40.44593       -6.81683
N        -13.13097       40.27280       -5.51015
O        -13.89195       41.51890       -7.18835
H        -13.01139       41.52412       -9.42630
H        -11.98336       38.67388       -9.42245
H        -12.92320       38.41332       -7.25285
H        -14.20348       39.06693       -8.29852
H        -12.74479       39.38027       -5.16894
H        -13.26455       41.04000       -4.83491
N        -10.21108       39.19260       -7.37475
C         -8.88737       39.44363       -6.82635
C         -7.91451       38.32023       -7.14299
O         -6.76499       38.43066       -6.74139
H        -10.69321       38.33421       -7.07379
H         -8.96997       39.54722       -5.72426
H         -8.45960       40.38798       -7.22747
N         -8.28619       37.21175       -7.85182
C         -7.36990       36.13147       -8.20621
C         -6.27432       36.67579       -9.10220
O         -6.57600       37.41219      -10.02971
C         -8.14827       34.98296       -8.89471
C         -7.23168       33.82219       -9.30176
O         -9.11993       34.50332       -7.99892
H         -9.25894       37.12175       -8.17473
H         -6.92387       35.70252       -7.28034
H         -8.64364       35.38714       -9.80398
H         -9.81949       34.05186       -8.53950
H         -7.83456       33.01597       -9.77060
H         -6.47627       34.15685      -10.04325
H         -6.71134       33.40767       -8.41213
N         -4.97578       36.32150       -8.89167
C         -3.85776       36.85483       -9.66008
C         -3.41108       35.82013      -10.68370
O         -3.08803       34.69742      -10.32348
C         -2.72220       37.30219       -8.69505
C         -1.49154       37.80916       -9.49057
C         -3.25738       38.38933       -7.73830
C         -0.30948       38.21863       -8.61018
H         -4.76800       35.62123       -8.16275
H         -4.18053       37.76100      -10.21941
H         -2.40627       36.42439       -8.08817
H         -1.78197       38.66705      -10.12931
H         -1.12770       36.99359      -10.15074
H         -4.12856       38.01409       -7.16360
H         -2.49735       38.68045       -6.98702
H         -3.56959       39.29205       -8.30720
H         -0.55671       39.09663       -7.98027
H         -0.00042       37.37131       -7.96193
H          0.54715       38.50455       -9.25608
N         -3.38653       36.16746      -12.00281
C         -3.08214       35.28374      -13.11831
C         -1.83507       35.72064      -13.88121
O         -1.49967       35.03938      -14.84109
C         -4.28112       35.31905      -14.08226
C         -5.54213       34.83139      -13.43280
O         -5.69413       33.64132      -13.20762
O         -6.50386       35.70684      -13.07799
H         -3.63729       37.12704      -12.25203
H         -2.90918       34.24353      -12.76371
H         -4.09968       34.71747      -14.99972
H         -4.42271       36.37304      -14.40301
N         -1.07146       36.79527      -13.51091
C          0.18426       37.13285      -14.17520
C          0.23606       38.60877      -14.56307
O          1.10708       39.31264      -14.06917
C          1.32462       36.67973      -13.23142
C          2.74187       36.85738      -13.73979
C          3.74651       37.24891      -12.83557
C          3.09980       36.58670      -15.07590
C          5.07501       37.36381      -13.25497
C          4.42706       36.72372      -15.49442
C          5.41442       37.10589      -14.58425
H         -1.32061       37.33847      -12.67230
H          0.30097       36.54617      -15.10719
H          1.18469       35.58814      -13.07652
H          1.21120       37.16219      -12.23416
H          3.50802       37.44054      -11.79655
H          2.36564       36.27558      -15.80421
H          5.84299       37.64642      -12.54651
H          4.69189       36.52405      -16.52476
H          6.44335       37.19617      -14.90769
N         -0.62786       39.16112      -15.47829
C         -0.53591       40.53992      -15.95022
C         -0.65539       41.60030      -14.87034
O         -0.37719       42.75693      -15.15533
C         -1.71572       40.67678      -16.91933
C         -1.83373       39.27272      -17.46742
C         -1.63666       38.42565      -16.21045
H          0.44524       40.63092      -16.46935
H         -2.65010       40.85928      -16.33794
H         -1.60557       41.48602      -17.67342
H         -2.76908       39.06021      -18.02761
H         -0.96352       39.10683      -18.14303
H         -2.55498       38.38115      -15.58877
H         -1.32026       37.40816      -16.51792
N         -1.10648       41.29077      -13.62169
C         -1.18366       42.26383      -12.54660
C          0.23319       42.62547      -12.15484
O          0.60199       43.78947      -12.22563
C         -1.93734       41.74492      -11.28885
C         -3.46443       41.51822      -11.43582
C         -3.91407       40.22111      -12.05819
O         -5.23083       39.94463      -12.13211
O         -3.11557       39.37936      -12.41399
H         -1.37691       40.32816      -13.43198
H         -1.73397       43.16685      -12.89709
H         -1.84294       42.56606      -10.54325
H         -1.45305       40.85108      -10.84568
H         -3.92059       42.38071      -11.96683
H         -3.88671       41.49181      -10.40788
N          1.09286       41.64865      -11.74953
C          2.46379       41.91917      -11.38364
H          3.00179       42.37720      -12.24040
H          2.49453       42.60292      -10.51000
H          2.97343       40.96914      -11.11316
H          0.76774       40.67029      -11.71240
Ca        -6.01765       37.91469      -12.80614
O         -5.30011       39.03356      -15.60785
H         -4.69310       39.04549      -14.82655
H         -5.37211       38.07669      -15.85112
O         -6.95193       41.06761      -13.97140
H         -6.62229       41.83394      -14.50308
H         -7.26695       41.46774      -13.12250
O         -7.68494       40.26832      -10.67832
H         -7.06653       40.31770       -9.90666
H         -8.55481       40.01056      -10.28545
O         -9.33686       37.05181      -11.79253
H        -10.07054       37.04117      -12.45654
H         -8.83619       36.21883      -11.97416

Ca 1.0



