%chk=apoCaM-CA-Ng.loop2.water3.frame718.chk
%nprocshared=20
%mem=10GB
%nosave
#b3lyp/svp scf=(tight,noincore,xqc) Test 
#IOP(5/87=12) Density=Current Pop=(MK,readradii) iop(6/33=2) iop(6/42=6)

apoCaM-CA-Ng.loop2.water3.frame718 

   -2  1 
C         69.16680      112.71612       -5.15709
C         70.22589      113.43917       -5.93012
O         69.96920      114.54793       -6.37494
H         68.25305      112.65976       -5.78559
H         69.48510      111.68079       -4.91481
H         68.93404      113.25631       -4.21646
N         71.44311      112.86245       -6.13857
C         72.47443      113.43309       -6.99405
C         73.44023      114.28331       -6.18533
O         74.60876      113.95194       -6.03362
C         73.08375      112.30919       -7.85986
C         74.08215      112.78327       -8.88497
O         74.45919      114.07516       -8.95593
O         74.54975      111.98172       -9.67740
H         71.63113      111.94169       -5.71130
H         72.01631      114.13603       -7.72404
H         72.24169      111.83876       -8.41641
H         73.55353      111.53099       -7.22070
N         72.97387      115.47137       -5.70506
C         73.76118      116.52243       -5.07962
C         73.33636      116.69526       -3.63103
O         72.35210      116.08097       -3.24113
C         73.45705      117.81367       -5.86469
H         71.98196      115.68981       -5.85207
H         74.84264      116.25701       -5.11248
H         73.97275      118.71736       -5.50008
H         73.70775      117.67780       -6.93687
H         72.36715      118.02871       -5.79080
N         74.02700      117.45402       -2.72469
C         75.27377      118.16793       -2.99102
C         76.48184      117.34785       -2.59376
O         76.36348      116.40372       -1.82712
C         75.23139      119.59749       -2.39610
C         74.95955      119.70035       -0.92324
O         75.11085      118.64441       -0.12607
O         74.70821      120.78537       -0.42411
H         73.67859      117.44583       -1.75496
H         75.41394      118.28423       -4.07256
H         74.40807      120.13406       -2.90386
H         76.18584      120.13058       -2.58938
N         77.68584      117.60479       -3.18000
C         78.86659      116.80170       -2.92325
C         78.69715      115.37486       -3.42781
O         77.98535      115.19326       -4.40661
H         77.76788      118.38988       -3.84472
H         79.05969      116.85842       -1.83989
H         79.73219      117.24063       -3.46582
N         79.35906      114.29977       -2.89966
C         80.29433      114.33575       -1.77339
C         79.86143      113.36555       -0.68929
O         78.97295      112.56325       -0.93591
C         81.68672      113.93260       -2.27765
C         82.14170      114.83863       -3.39347
N         82.34095      114.34707       -4.63913
O         82.31737      116.02795       -3.17500
H         79.20937      113.38379       -3.35443
H         80.36029      115.34221       -1.32860
H         81.63180      112.88450       -2.64778
H         82.42852      113.96716       -1.45173
H         82.18458      113.34933       -4.84548
H         82.63940      114.96737       -5.40575
N         80.44932      113.37775        0.54453
C         80.10656      112.41073        1.58239
C         79.26203      112.97653        2.71620
O         78.87383      112.19725        3.57459
H         81.16578      114.09106        0.75396
H         81.04737      111.98364        1.99678
H         79.54582      111.56000        1.14459
N         78.95564      114.30214        2.81749
C         78.22576      114.87139        3.95531
C         76.76104      114.47760        3.97462
O         76.04445      114.78619        3.03416
C         78.31715      116.41885        3.92327
C         77.53442      117.10218        5.07406
O         79.67966      116.78470        3.93289
H         79.32854      114.94652        2.10554
H         78.71833      114.54138        4.89623
H         77.86320      116.77416        2.97891
H         79.82910      117.53138        4.56845
H         77.59731      118.20587        4.95407
H         76.46630      116.83631        5.06484
H         77.92216      116.81018        6.06726
N         76.22813      113.89037        5.08220
C         74.79038      113.81100        5.30482
C         74.26544      115.21487        5.67898
O         74.58518      115.69044        6.75886
C         74.47523      112.76872        6.43795
C         72.99213      112.76548        6.89249
C         74.96442      111.35774        6.04699
C         71.97430      112.37127        5.83582
H         76.86103      113.59274        5.83903
H         74.30622      113.45083        4.36886
H         75.03238      113.05856        7.35613
H         72.74170      113.78459        7.25258
H         72.86757      112.08266        7.76192
H         76.07348      111.31152        6.10889
H         74.56639      110.58818        6.74234
H         74.66260      111.08998        5.01173
H         72.11995      112.97925        4.93962
H         72.05461      111.29764        5.57381
H         70.95587      112.57570        6.22559
N         73.43683      115.91363        4.84201
C         72.79296      117.19752        5.13368
C         71.27595      117.08124        5.23207
O         70.66026      118.06278        5.62751
C         73.05535      118.22489        4.00530
C         74.50947      118.35194        3.73847
O         75.13555      117.26874        3.24590
O         75.13121      119.34133        4.09196
H         73.27606      115.53587        3.92255
H         73.18072      117.58416        6.10186
H         72.61266      119.20731        4.28164
H         72.56535      117.89488        3.05744
N         70.59963      115.94150        4.88983
C         69.15559      115.80543        4.96992
C         68.52195      115.22811        3.67475
O         67.89142      114.18648        3.76467
C         68.88652      114.90965        6.20880
C         67.65044      115.38915        6.89323
C         67.78219      116.33643        7.92335
C         66.37897      114.99699        6.46325
C         66.65073      116.89976        8.50412
C         65.24596      115.55919        7.05329
C         65.38159      116.51593        8.06583
H         71.12020      115.10327        4.66604
H         68.71754      116.81189        5.15721
H         69.71916      115.06414        6.93349
H         68.91624      113.81510        6.00996
H         68.76359      116.66395        8.25153
H         66.26424      114.27219        5.66916
H         66.76350      117.64593        9.27938
H         64.26403      115.26482        6.71197
H         64.50451      116.96642        8.50615
N         68.61781      115.81531        2.43286
C         68.04653      115.23825        1.20325
C         68.44059      113.77469        0.93231
O         67.69825      113.05633        0.27916
C         68.62498      116.12121        0.08677
C         68.82404      117.46155        0.76468
C         69.25244      117.09273        2.18858
H         66.94103      115.32492        1.28128
H         69.64095      115.75655       -0.18264
H         68.00412      116.15351       -0.83768
H         69.51951      118.15556        0.24078
H         67.82150      117.93779        0.81802
H         70.34915      116.98001        2.30149
H         68.87025      117.88478        2.87168
N         69.62852      113.29882        1.39042
C         70.12335      111.92478        1.25933
C         69.20146      110.99995        2.02920
O         68.74664      110.00421        1.48469
C         71.59293      111.71944        1.75873
C         72.63036      112.66895        1.10591
C         72.68728      113.98428        1.79605
O         73.39523      114.89214        1.40582
O         72.01911      114.12679        2.92886
H         70.17569      113.98804        1.87377
H         70.14560      111.64955        0.18204
H         71.88119      110.68719        1.46864
H         71.67959      111.75406        2.86776
H         72.38634      112.78787        0.03411
H         73.65676      112.25976        1.21132
N         68.83230      111.32563        3.30033
C         67.85702      110.57426        4.05921
H         66.90290      110.50804        3.49181
H         68.23762      109.55737        4.28022
H         67.64541      111.09962        5.01684
H         69.21748      112.17824        3.72923
Ca        75.38507      116.85033        1.08467
O         73.97731      115.04941       -1.13350
H         74.40175      114.85154       -2.00303
H         73.14909      114.51529       -1.14813
O         76.28443      113.71910        0.03735
H         76.85641      112.92161        0.13630
H         75.95302      113.64299       -0.88948
O         78.02923      117.59854        0.61613
H         78.87598      117.17690        0.90647
H         77.99199      118.45871        1.10556

Ca 1.0



