%chk=apoCaM-CA-Ng.loop2.water4.frame1332.chk
%nprocshared=20
%mem=10GB
%nosave
#b3lyp/svp scf=(tight,noincore,xqc) Test 
#IOP(5/87=12) Density=Current Pop=(MK,readradii) iop(6/33=2) iop(6/42=6)

apoCaM-CA-Ng.loop2.water4.frame1332 

   -2  1 
C         65.69048       71.96872      123.85103
C         64.46413       72.61636      123.27220
O         64.60018       73.66034      122.65107
H         66.59470       72.56978      123.61500
H         65.59120       71.91311      124.95607
H         65.82652       70.95150      123.43050
N         63.21060       72.10549      123.43668
C         62.89439       70.86639      124.14479
C         62.17477       71.11455      125.46204
O         61.94165       70.14491      126.17118
C         62.11687       69.89124      123.22232
C         60.80265       70.39155      122.65319
O         60.33396       71.62677      122.92479
O         60.16898       69.66653      121.90368
H         62.43558       72.65423      123.04398
H         63.82827       70.34349      124.43557
H         61.92322       68.94902      123.78191
H         62.77572       69.63886      122.36364
N         61.83105       72.36740      125.88522
C         61.23621       72.63045      127.19221
C         59.81327       73.15580      127.08866
O         59.19748       73.36068      128.12578
C         62.12179       73.64010      127.93279
H         62.01496       73.18020      125.27916
H         61.18919       71.69861      127.79588
H         63.15432       73.24187      128.03085
H         62.16798       74.59749      127.36729
H         61.72611       73.84738      128.94913
N         59.23012       73.41930      125.88510
C         57.89236       73.97660      125.73419
C         57.06164       73.12548      124.77310
O         57.48635       72.04090      124.40308
C         58.03784       75.46004      125.31910
C         58.82047       75.68074      124.05755
O         59.97581       76.37176      124.10083
O         58.40728       75.26370      122.99004
H         59.76909       73.28611      125.01871
H         57.34608       73.99842      126.70305
H         58.56960       75.98026      126.14685
H         57.04724       75.94819      125.22468
N         55.84762       73.56370      124.34080
C         54.97134       72.84571      123.42464
C         55.57451       72.57110      122.02535
O         56.45016       73.58450      121.62815
H         55.50291       74.47209      124.68168
H         54.06662       73.47986      123.28759
H         54.63855       71.88485      123.87174
N         54.45826       72.39721      121.07439
C         54.63999       72.74691      119.64613
C         53.32102       73.28130      119.09173
O         52.33903       73.35162      119.81968
C         55.11022       71.53061      118.80970
C         56.49457       71.06025      119.16034
N         56.72175       69.77188      119.50214
O         57.43111       71.84137      119.08958
H         53.96928       71.48189      121.21255
H         55.36464       73.57995      119.52714
H         55.16034       71.80976      117.73848
H         54.37185       70.70431      118.90191
H         55.95002       69.09063      119.54321
H         57.67851       69.44943      119.70977
N         53.23310       73.68455      117.78967
C         52.01983       74.21042      117.18290
C         51.68069       75.60124      117.68701
O         52.38447       76.11052      118.54807
H         54.05699       73.59939      117.17825
H         51.17786       73.50471      117.35191
H         52.19214       74.28020      116.09189
N         50.61502       76.31142      117.20967
C         49.68447       75.82850      116.18796
C         50.29620       75.75881      114.78518
O         49.59632       75.29935      113.89281
C         48.42651       76.74052      116.10895
C         47.64054       76.78918      117.42415
O         48.80309       78.04291      115.73536
H         50.44192       77.23524      117.63600
H         49.33682       74.81379      116.48316
H         47.74317       76.30511      115.33978
H         48.05073       78.42729      115.21344
H         46.73121       77.41333      117.28859
H         47.32225       75.76742      117.71970
H         48.24136       77.23258      118.24404
N         51.55270       76.21852      114.49273
C         52.08816       76.26629      113.13107
C         53.30103       75.34932      113.02256
O         54.23645       75.56573      113.78089
C         52.47908       77.72818      112.77236
C         51.29760       78.72097      112.93403
C         53.08434       77.81510      111.35830
C         50.08803       78.44559      112.03459
H         52.14912       76.58975      115.24578
H         51.31264       75.96050      112.42338
H         53.26780       78.06196      113.48460
H         51.66575       79.74739      112.71819
H         50.95439       78.71298      113.99068
H         53.37718       78.86143      111.12998
H         53.99961       77.19234      111.28877
H         52.37132       77.45639      110.58828
H         50.36643       78.49252      110.96261
H         49.63738       77.45785      112.25468
H         49.31255       79.21694      112.22167
N         53.40985       74.30020      112.14587
C         52.42044       73.84615      111.16458
C         53.06474       73.56743      109.81136
O         54.05367       72.84610      109.76543
C         51.68673       72.59523      111.69225
C         52.57572       71.42618      112.02469
O         52.44003       70.36833      111.43232
O         53.48703       71.51886      113.01198
H         54.27094       73.73576      112.22039
H         51.62161       74.58273      110.99132
H         50.94036       72.28632      110.92598
H         51.12694       72.87206      112.61203
N         52.49773       74.03631      108.65513
C         53.00316       73.71044      107.31890
C         53.18168       74.96232      106.46052
O         52.57589       75.97621      106.79193
C         51.97888       72.80859      106.59556
C         51.69063       71.52202      107.32783
C         50.39262       71.25333      107.79723
C         52.70392       70.56951      107.52915
C         50.11466       70.05354      108.45718
C         52.42059       69.36935      108.18911
C         51.12723       69.11152      108.65210
H         51.62550       74.58467      108.72082
H         53.95771       73.16993      107.41796
H         52.33511       72.54745      105.57863
H         51.03613       73.38831      106.47291
H         49.59362       71.96966      107.65074
H         53.70860       70.75174      107.16939
H         49.11252       69.85318      108.81387
H         53.20283       68.63679      108.33865
H         50.90861       68.18132      109.16017
N         53.91053       74.97935      105.29425
C         54.82423       73.94041      104.81339
C         55.84982       73.59002      105.86577
O         56.05839       72.41706      106.14516
C         55.53643       74.60624      103.62318
C         54.46268       75.51930      103.09066
C         53.89556       76.10463      104.38168
H         54.24958       73.05340      104.47270
H         56.34948       75.28048      103.97885
H         55.97765       73.89279      102.89428
H         54.80097       76.27272      102.34820
H         53.68408       74.87533      102.61990
H         54.52780       76.91772      104.80177
H         52.86851       76.47669      104.17361
N         56.45102       74.59347      106.56245
C         57.33061       74.37442      107.69747
C         58.67235       73.85791      107.20323
O         59.31604       74.56573      106.44099
C         57.51906       75.69480      108.48217
C         56.18370       76.22245      109.04951
C         56.37887       77.53170      109.75665
O         55.79566       78.53161      109.36749
O         57.18662       77.60884      110.83079
H         56.20144       75.56406      106.31733
H         56.83940       73.66563      108.39681
H         57.96220       76.46433      107.81100
H         58.21920       75.52022      109.32862
H         55.75505       75.48437      109.76133
H         55.44510       76.37496      108.23419
N         59.18825       72.64937      107.56437
C         58.52467       71.71791      108.44965
H         57.55227       71.40393      108.01800
H         59.15309       70.81137      108.57876
H         58.36661       72.18181      109.44568
H         60.10771       72.37440      107.18473
Ca        58.49708       72.57242      121.95833
O         58.64141       74.93058      119.79649
H         58.16384       74.54968      119.01761
H         59.35488       75.49167      119.40113
O         57.18816       69.86035      122.39044
H         57.57059       69.16382      122.97954
H         56.22404       69.64296      122.33470
O         61.18314       74.39982      121.43592
H         61.27596       74.84899      122.31278
H         62.11399       74.27338      121.12404
O         60.56893       71.96691      119.18052
H         60.78632       72.25096      118.25712
H         60.20875       71.05001      119.07952

Ca 1.0



