%chk=apoCaM-CA-Ng.loop2.water3.frame313.chk
%nprocshared=20
%mem=10GB
%nosave
#b3lyp/svp scf=(tight,noincore,xqc) Test 
#IOP(5/87=12) Density=Current Pop=(MK,readradii) iop(6/33=2) iop(6/42=6)

apoCaM-CA-Ng.loop2.water3.frame313 

   -2  1 
C         57.35116       94.25891       30.88227
C         57.33045       95.65690       31.42855
O         56.25118       96.20491       31.56760
H         56.89859       94.25594       29.86677
H         58.38581       93.86558       30.80621
H         56.75875       93.58996       31.54086
N         58.48389       96.29140       31.78418
C         58.53341       97.67715       32.25086
C         58.30320       98.61787       31.07757
O         59.00547       98.48573       30.08333
C         59.90744       97.96582       32.88344
C         59.95054       99.33916       33.49538
O         60.76569      100.16073       33.10914
O         59.09173       99.66524       34.48124
H         59.36636       95.76011       31.72406
H         57.77360       97.82030       33.05214
H         60.70957       97.85439       32.12010
H         60.09546       97.22850       33.69349
N         57.33441       99.58063       31.10898
C         56.98020      100.35215       29.91918
C         55.94870       99.60181       29.08654
O         55.64561      100.04033       27.98624
C         56.47774      101.74610       30.30144
H         56.73196       99.65183       31.94364
H         57.88727      100.49185       29.28846
H         56.25171      102.33730       29.38735
H         55.55622      101.67334       30.91704
H         57.25806      102.28581       30.87910
N         55.39226       98.43997       29.54698
C         54.50200       97.56282       28.80314
C         53.12930       98.17874       28.55335
O         52.32914       97.57777       27.84957
C         55.23148       97.03794       27.54700
C         54.51088       95.87530       26.93387
O         54.15229       95.91149       25.76841
O         54.27121       94.77738       27.67542
H         55.62860       98.12050       30.48607
H         54.31108       96.67264       29.44513
H         56.23232       96.66030       27.85609
H         55.38181       97.84574       26.80092
N         52.75050       99.33567       29.17135
C         51.43970       99.94287       29.03177
C         50.29267       99.17676       29.67900
O         49.19974       99.72021       29.67045
H         53.41572       99.83540       29.77753
H         51.22539      100.13387       27.95837
H         51.47173      100.92801       29.54822
N         50.43788       97.94617       30.26520
C         49.34030       97.25968       30.95263
C         49.74951       96.89673       32.37362
O         50.88793       97.11355       32.75703
C         48.94921       95.97304       30.19479
C         48.47007       96.25320       28.79412
N         49.08274       95.68519       27.72959
O         47.50541       96.98308       28.61950
H         51.34488       97.46587       30.24078
H         48.44359       97.91378       31.01426
H         48.11617       95.46293       30.72440
H         49.81511       95.27612       30.17613
H         49.88776       95.05477       27.85667
H         48.74352       95.86667       26.77352
N         48.84056       96.30665       33.20403
C         49.15131       95.83735       34.54581
C         48.87375       94.35221       34.66521
O         48.50464       93.71943       33.68669
H         47.87591       96.17007       32.87117
H         48.50403       96.38351       35.26465
H         50.21077       96.02644       34.81961
N         49.00350       93.73397       35.87489
C         48.66628       92.32123       36.07413
C         49.64117       91.35814       35.39375
O         49.35852       90.16666       35.39617
C         48.54577       91.96742       37.58220
C         49.87551       92.05073       38.34988
O         47.55271       92.74978       38.20047
H         49.27507       94.31571       36.67899
H         47.65498       92.16067       35.63560
H         48.20719       90.91037       37.65695
H         47.91868       93.65821       38.35663
H         50.29932       93.07542       38.32487
H         49.71610       91.75705       39.40784
H         50.61009       91.34684       37.91344
N         50.79939       91.77958       34.80684
C         51.74939       90.88689       34.14852
C         51.73742       91.18794       32.66971
O         51.88079       92.34358       32.28853
C         53.18331       91.05044       34.73479
C         53.26784       90.66844       36.23498
C         54.22457       90.24881       33.92219
C         52.94076       89.20285       36.55763
H         51.02769       92.78439       34.80215
H         51.45585       89.82392       34.27341
H         53.47133       92.12246       34.65290
H         52.58856       91.32251       36.81432
H         54.30096       90.87203       36.59209
H         55.23819       90.38216       34.35493
H         53.97672       89.16773       33.89597
H         54.27202       90.60942       32.87386
H         53.63443       88.51005       36.03825
H         53.05546       89.03277       37.64834
H         51.89695       88.94865       36.28565
N         51.58585       90.16946       31.77500
C         51.59764       90.38086       30.33087
C         50.98283       89.22005       29.51726
O         50.99164       89.30582       28.29818
C         53.03807       90.75800       29.90256
C         53.10041       91.47638       28.58815
O         52.45604       92.50119       28.42665
O         53.95561       91.08250       27.63130
H         51.52881       89.22340       32.16560
H         50.93267       91.25038       30.12805
H         53.70682       89.87073       29.92933
H         53.45160       91.49489       30.62078
N         50.32076       88.17423       30.11077
C         49.52839       87.18856       29.38265
C         50.37098       86.21854       28.57622
O         51.24695       85.59142       29.15727
C         48.64355       86.38832       30.37676
C         47.63845       85.53091       29.64110
C         46.30907       85.96853       29.52449
C         48.01637       84.31938       29.03200
C         45.38260       85.22387       28.79168
C         47.08518       83.57558       28.30285
C         45.77078       84.03090       28.17737
H         50.24116       88.12365       31.12915
H         48.81409       87.74541       28.74243
H         48.08908       87.14072       30.98018
H         49.23679       85.77747       31.09395
H         45.99575       86.90021       29.97890
H         49.03026       83.95092       29.11289
H         44.36577       85.57924       28.69253
H         47.38553       82.65049       27.82798
H         45.05302       83.46046       27.60340
N         50.08138       85.92689       27.26669
C         50.68655       84.81312       26.55522
C         52.10867       85.09692       26.13153
O         52.78808       84.16681       25.71963
C         49.72730       84.57642       25.38535
C         49.25440       85.98376       25.08000
C         49.03839       86.55422       26.47972
H         50.69430       83.90093       27.19325
H         50.14184       83.99872       24.53224
H         48.83834       84.02851       25.77603
H         50.10607       86.52282       24.60742
H         48.36757       86.06270       24.41585
H         49.12677       87.66127       26.44225
H         48.05155       86.25748       26.89558
N         52.63952       86.34604       26.21679
C         54.04913       86.60947       25.98898
C         54.82306       86.04365       27.15870
O         55.71267       85.23023       26.95122
C         54.29431       88.11942       25.81966
C         53.60732       88.61458       24.53277
C         53.86954       90.06220       24.27694
O         52.93761       90.84497       24.17856
O         55.13361       90.49909       24.11607
H         52.03635       87.13528       26.49121
H         54.38824       86.12826       25.04273
H         55.38874       88.29770       25.73087
H         53.91640       88.67471       26.70479
H         52.51014       88.44692       24.59478
H         53.99954       88.04572       23.66288
N         54.49168       86.39474       28.43282
C         55.15319       85.82874       29.58687
H         56.22942       86.09830       29.57873
H         54.68892       86.22026       30.51731
H         55.04456       84.72246       29.58038
H         53.71988       87.06035       28.59330
Ca        54.30021       92.55174       25.95330
O         51.63464       93.86502       25.38781
H         50.75022       93.42518       25.32220
H         51.49595       94.76542       25.00029
O         54.83236       93.62052       23.12732
H         55.15963       92.83709       22.61806
H         54.28333       94.12692       22.47772
O         57.11962       93.24351       26.31942
H         57.63087       92.61543       26.88887
H         57.58398       94.11165       26.42144

Ca 1.0



