%chk=apoCaM-CA-Ng.loop3.water5.frame1053.chk
%nprocshared=20
%mem=10GB
%nosave
#b3lyp/svp scf=(tight,noincore,xqc) Test 
#IOP(5/87=12) Density=Current Pop=(MK,readradii) iop(6/33=2) iop(6/42=6)

apoCaM-CA-Ng.loop3.water5.frame1053 

   0  1 
C         39.73598       76.88302       45.31220
C         39.90480       78.37294       45.33203
O         38.94843       79.07379       45.63045
H         38.94805       76.61306       44.57775
H         40.67717       76.37240       45.01612
H         39.44043       76.52681       46.31978
N         41.10206       78.93148       45.00523
C         41.32351       80.37114       44.94791
C         40.33420       81.03267       43.99449
O         39.68300       81.98173       44.40598
C         42.81091       80.69253       44.64653
C         43.41137       80.00873       43.44519
O         42.99666       80.22444       42.32192
O         44.44883       79.16562       43.61059
H         41.88346       78.30065       44.77019
H         41.14146       80.80915       45.95625
H         43.39471       80.34850       45.52630
H         42.95059       81.79184       44.56605
N         40.13038       80.56209       42.73141
C         39.15132       81.12377       41.80223
C         39.83970       82.11474       40.88525
O         39.91771       81.90234       39.68293
C         38.43340       79.99162       41.03497
C         37.50347       79.18429       41.95150
C         36.85925       78.01637       41.19471
C         35.83587       77.28851       42.07675
N         35.28245       76.12391       41.38645
H         40.66656       79.74043       42.41975
H         38.36894       81.70277       42.33661
H         39.19077       79.33211       40.55613
H         37.80021       80.43414       40.23372
H         36.70924       79.86633       42.32993
H         38.06866       78.77983       42.81824
H         37.65964       77.30862       40.88590
H         36.34197       78.38970       40.28327
H         35.01120       77.99122       42.33401
H         36.31990       76.95464       43.02099
H         36.04307       75.43325       41.18975
H         34.56685       75.67080       41.99962
H         34.82759       76.41303       40.49015
N         40.33553       83.26456       41.42170
C         41.03803       84.29504       40.66778
C         42.41242       84.46636       41.28504
O         42.82982       85.58194       41.57025
C         40.22861       85.62362       40.66358
C         40.02763       86.18390       42.05424
O         40.50606       87.26376       42.36238
O         39.35463       85.46404       42.96985
H         40.23258       83.39915       42.43398
H         41.16924       83.96855       39.61343
H         39.23469       85.45454       40.19718
H         40.77288       86.36867       40.04129
N         43.14358       83.36523       41.60611
C         44.39224       83.46096       42.33314
C         45.48839       84.03853       41.47978
O         45.28442       84.22244       40.28730
H         42.75942       82.43370       41.40525
H         44.71114       82.45204       42.66306
H         44.22031       84.08828       43.23258
N         46.70213       84.36999       41.99472
C         47.06980       84.28179       43.40993
C         47.09625       82.82748       43.87363
O         47.73605       82.02739       43.20681
C         48.45284       84.93804       43.61762
C         48.46444       86.41225       43.24803
N         49.60938       87.12408       43.34077
O         47.44576       86.97048       42.86311
H         47.39325       84.75675       41.33147
H         46.35474       84.87669       44.01270
H         49.20882       84.40581       42.99950
H         48.74468       84.85072       44.68634
H         50.48153       86.67847       43.65840
H         49.62281       88.12371       43.08729
N         46.44725       82.37790       44.99341
C         45.76272       83.24763       45.94407
C         45.13441       82.50795       47.11638
O         45.11064       81.28349       47.13679
H         46.50656       81.36718       45.19407
H         44.95381       83.81519       45.44201
H         46.51172       83.96259       46.34937
N         44.62476       83.21983       48.16224
C         43.98270       82.62165       49.33485
C         42.65906       83.33836       49.62682
O         42.37564       84.33606       48.97222
C         44.96219       82.76824       50.52346
C         44.54508       82.04993       51.78425
C         44.24891       82.77674       52.94932
C         44.47116       80.64591       51.81536
C         43.87952       82.11289       54.12257
C         44.10782       79.98341       52.99293
C         43.80944       80.71645       54.15089
O         43.45771       80.09280       55.29357
H         44.74623       84.24646       48.14742
H         43.78987       81.54179       49.15018
H         45.10180       83.85439       50.72000
H         45.95468       82.35802       50.23262
H         44.29912       83.85792       52.94978
H         44.70592       80.06372       50.93290
H         43.64819       82.68579       55.01151
H         44.06186       78.90140       53.00558
H         43.40334       79.12872       55.35934
N         41.80600       82.92337       50.61127
C         40.60622       83.69037       50.97867
C         40.97685       85.08753       51.48055
O         42.15114       85.38023       51.65212
C         39.69942       82.96129       52.02535
C         38.98015       81.75435       51.37980
C         40.45828       82.57896       53.31323
C         37.89043       81.15757       52.27639
H         42.02059       82.04686       51.10476
H         40.00142       83.84146       50.05822
H         38.89319       83.66776       52.31500
H         39.70795       80.96744       51.09020
H         38.46641       82.10931       50.45867
H         41.20872       81.78687       53.12255
H         40.96833       83.46430       53.74577
H         39.76159       82.19530       54.08520
H         37.15336       81.94105       52.55935
H         37.35199       80.35866       51.72518
H         38.31859       80.71032       53.19529
N         39.99498       86.01378       51.70495
C         40.26422       87.39356       52.10402
C         39.72624       88.35771       51.06023
O         39.00362       87.93632       50.17065
C         39.64664       87.66999       53.48026
O         38.25846       87.46803       53.43745
H         39.01213       85.74444       51.55346
H         41.36032       87.56227       52.17435
H         39.85801       88.71455       53.79612
H         40.11792       86.97199       54.21098
H         37.97332       87.25280       54.36332
N         40.08840       89.67602       51.09119
C         39.69853       90.65797       50.08089
C         38.21590       91.00181       50.10707
O         37.75848       91.62186       49.15688
C         40.16595       90.21865       48.67785
H         40.72544       89.99266       51.83688
H         40.23366       91.61040       50.29027
H         39.97409       91.02466       47.93771
H         41.25856       90.02000       48.68847
H         39.64099       89.31151       48.31867
N         37.41161       90.69679       51.17550
C         35.99180       91.05038       51.25259
C         35.15400       90.32858       50.20456
O         33.98887       90.66733       50.04713
C         35.80141       92.57717       51.16828
H         37.81666       90.21568       51.99141
H         35.59844       90.74577       52.24776
H         36.09213       92.98925       50.18185
H         34.73391       92.83832       51.33192
H         36.40115       93.07837       51.95676
N         35.66826       89.29840       49.47251
C         34.93831       88.61608       48.41325
C         33.63731       88.00888       48.91449
O         32.66099       88.04045       48.17807
C         35.84779       87.55307       47.76024
C         35.23053       86.96132       46.48821
C         36.18604       86.01900       45.82307
O         36.61261       84.91538       46.46705
O         36.57732       86.24937       44.69026
H         36.62821       88.98177       49.66181
H         34.69998       89.37253       47.63202
H         36.08390       86.74909       48.49329
H         36.80221       88.04879       47.46967
H         34.99268       87.79039       45.78482
H         34.29509       86.41439       46.72503
N         33.53757       87.48084       50.16818
C         32.30734       86.92824       50.70252
H         31.47686       86.94389       49.96506
H         32.47876       85.87689       51.01206
H         31.99229       87.51806       51.58937
H         34.36003       87.48866       50.78946
Ca        39.36168       85.82153       45.19375
O         42.04324       83.99948       45.87672
H         41.41774       83.75851       46.60532
H         42.62692       84.69774       46.26688
O         37.16782       83.70464       43.42898
H         37.22456       84.05993       42.50631
H         36.31890       83.19750       43.44626
O         41.36914       87.83587       45.35490
H         41.81872       87.80163       46.23576
H         41.77120       87.08913       44.84298
O         39.71313       85.80010       48.18194
H         39.60668       86.72738       47.85209
H         38.82021       85.55814       48.53488
O         38.73559       82.49256       47.09898
H         38.03410       82.00585       46.59685
H         39.30683       81.77955       47.48059

Ca 1.0



