%chk=apoCaM-CA-Ng.loop1.water5.frame580.chk
%nprocshared=20
%mem=10GB
%nosave
#b3lyp/svp scf=(tight,noincore,xqc) Test 
#IOP(5/87=12) Density=Current Pop=(MK,readradii) iop(6/33=2) iop(6/42=6)

apoCaM-CA-Ng.loop1.water5.frame580 

   0  1 
C         70.04093       31.91225       -8.45937
C         69.15144       32.20628       -7.28578
O         69.55116       31.98491       -6.15177
H         71.02296       31.51411       -8.12772
H         69.55327       31.16306       -9.11829
H         70.21163       32.84397       -9.04001
N         67.91575       32.73166       -7.49820
C         66.98378       33.06554       -6.42537
C         66.52466       31.81672       -5.70203
O         66.07653       30.88748       -6.36048
C         65.74328       33.78493       -6.99053
C         66.11831       35.06757       -7.68003
O         66.75338       36.04155       -6.99989
O         65.84880       35.23227       -8.85894
H         67.63770       32.92010       -8.47448
H         67.47192       33.76687       -5.71193
H         65.05175       34.03214       -6.15518
H         65.20692       33.11650       -7.70073
N         66.55122       31.74966       -4.33767
C         66.04519       30.59407       -3.59891
C         64.58994       30.37577       -3.94357
O         63.76381       31.21453       -3.60643
C         66.15535       30.80273       -2.07248
C         67.60872       30.86876       -1.58513
C         67.72236       31.29523       -0.11311
C         67.04703       30.33614        0.87814
N         67.25154       30.79895        2.25149
H         66.90663       32.56471       -3.81603
H         66.63548       29.69692       -3.88959
H         65.64774       29.95974       -1.55399
H         65.62724       31.74621       -1.80610
H         68.16619       31.62539       -2.17433
H         68.09580       29.88191       -1.74321
H         67.28313       32.31044        0.00431
H         68.80370       31.35543        0.13579
H         67.47928       29.31813        0.76434
H         65.95528       30.28029        0.67732
H         66.82451       30.11561        2.91631
H         68.27334       30.86848        2.46144
H         66.80085       31.73407        2.38523
N         64.21779       29.28800       -4.67381
C         62.84533       29.05019       -5.07556
C         62.49857       27.59256       -4.81925
O         62.97174       26.75058       -5.57052
C         62.71482       29.41524       -6.57418
C         61.32046       29.32441       -7.13093
O         61.12841       29.60671       -8.30281
O         60.28007       28.94522       -6.36378
H         64.94601       28.64407       -5.02051
H         62.16475       29.72364       -4.51769
H         63.38649       28.76364       -7.17676
H         63.05472       30.46573       -6.70941
N         61.68003       27.17139       -3.81395
C         61.14620       27.98864       -2.73574
C         62.16654       28.24175       -1.63814
O         63.33869       27.92727       -1.79602
H         61.44232       26.16741       -3.78624
H         60.35253       27.38707       -2.24401
H         60.65335       28.91122       -3.10365
N         61.72982       28.72191       -0.43717
C         62.55826       28.86467        0.75542
C         62.11831       27.83458        1.78144
O         60.95805       27.81506        2.16909
C         62.42546       30.28626        1.33580
C         63.10242       30.41701        2.67741
O         62.37916       30.74421        3.76595
O         64.29539       30.19912        2.79458
H         60.72281       28.92125       -0.33606
H         63.63277       28.69292        0.51678
H         61.34966       30.52766        1.47255
H         62.86387       31.01904        0.62506
N         63.02989       26.95196        2.26964
C         62.74540       25.93166        3.26269
C         62.98115       24.57025        2.66553
O         62.08796       23.73687        2.71392
H         63.99810       27.01609        1.92390
H         61.70086       25.99447        3.64091
H         63.42840       26.08087        4.12591
N         64.15984       24.29373        2.03923
C         64.44860       23.02525        1.38641
C         64.44026       23.23245       -0.12299
O         64.33195       24.36262       -0.57970
C         65.81024       22.49676        1.91067
C         65.77579       22.28499        3.42965
O         66.14514       21.28357        1.29073
H         64.88017       25.02781        1.97554
H         63.64912       22.28471        1.60684
H         66.58529       23.26460        1.67022
H         67.12872       21.17641        1.38257
H         66.76787       21.93437        3.78469
H         65.54039       23.23213        3.95966
H         65.01112       21.52391        3.69298
N         64.50738       22.16239       -0.96490
C         64.47484       22.29890       -2.41770
C         63.14434       22.88017       -2.85897
O         63.14983       23.90967       -3.52210
C         64.74585       20.93647       -3.13116
C         66.08954       20.28086       -2.69894
C         64.70793       21.10228       -4.66562
C         67.33145       21.16033       -2.88181
H         64.56998       21.22214       -0.55428
H         65.28307       22.99558       -2.73031
H         63.93858       20.21848       -2.86434
H         66.22875       19.34106       -3.27659
H         66.04483       19.98844       -1.63031
H         63.71180       21.45907       -5.00198
H         65.46859       21.83120       -5.01338
H         64.88979       20.12644       -5.16371
H         67.27434       22.06303       -2.23877
H         68.23172       20.59014       -2.57158
H         67.46204       21.46577       -3.93901
N         61.96640       22.27246       -2.53257
C         60.66746       22.75709       -2.99308
C         59.94180       21.65187       -3.74849
O         60.40914       20.51835       -3.75463
C         59.82234       23.25115       -1.79034
C         60.57172       24.29417       -0.95599
O         58.62860       23.83065       -2.25335
H         61.99050       21.43408       -1.92971
H         60.80785       23.60991       -3.69355
H         59.60251       22.37449       -1.13461
H         57.91261       23.60060       -1.60606
H         60.85057       25.16376       -1.58309
H         59.92641       24.64426       -0.12290
H         61.49178       23.85820       -0.51549
N         58.78950       21.91792       -4.42391
C         58.01084       20.90728       -5.12322
C         58.04996       21.17376       -6.61320
O         58.45752       20.28337       -7.34612
C         56.56880       20.85727       -4.55082
C         55.71107       19.78251       -5.23349
O         55.94081       22.10738       -4.67534
H         58.44722       22.88953       -4.45769
H         58.44581       19.89425       -4.95903
H         56.66190       20.59732       -3.46975
H         55.20673       22.13151       -4.00713
H         55.57695       20.00872       -6.31183
H         56.18385       18.78325       -5.12988
H         54.70614       19.74560       -4.76132
N         57.62024       22.35811       -7.14138
C         57.49498       22.54823       -8.57860
C         57.70714       24.00457       -8.95793
O         57.09830       24.86776       -8.33895
C         56.07702       22.13177       -9.00437
C         56.05051       21.75079      -10.48885
C         54.61933       21.66565      -11.01137
C         54.58890       21.02535      -12.40305
N         53.26602       21.16293      -13.00724
H         57.23878       23.07842       -6.51272
H         58.22438       21.89374       -9.10764
H         55.36181       22.94703       -8.75481
H         55.74860       21.22422       -8.45142
H         56.57204       20.77056      -10.58813
H         56.59046       22.49664      -11.11127
H         54.22269       22.70427      -11.05291
H         53.97671       21.06401      -10.33205
H         54.85052       19.94681      -12.30216
H         55.33837       21.50472      -13.07069
H         53.08036       22.17416      -13.20239
H         53.24566       20.63731      -13.91039
H         52.52766       20.78563      -12.37035
N         58.48142       24.35248      -10.02398
C         58.62434       25.74125      -10.44665
C         59.36219       26.54705       -9.38527
O         58.77449       27.49956       -8.89401
C         59.19272       25.82812      -11.88655
C         59.25024       27.26437      -12.44978
C         60.50301       27.99091      -12.04010
O         60.47043       29.11503      -11.29810
O         61.58369       27.56889      -12.41912
H         58.92480       23.60709      -10.58220
H         57.59941       26.17073      -10.54761
H         58.46535       25.26777      -12.51560
H         60.16749       25.32012      -12.01852
H         58.33004       27.82012      -12.17081
H         59.27418       27.21173      -13.56065
N         60.60617       26.24412       -8.91571
C         61.40283       25.11790       -9.34383
H         62.35304       25.09996       -8.76920
H         60.87104       24.16700       -9.13985
H         61.65898       25.20542      -10.41475
H         61.00502       26.83987       -8.17623
Ca        58.63886       29.99643      -10.33163
O         55.86861       29.19098      -10.76582
H         56.22442       28.32061      -11.07483
H         56.20994       29.84696      -11.42472
O         59.55735       32.16164       -7.34220
H         60.27371       32.80259       -7.57937
H         59.42768       32.28455       -6.36838
O         60.75430       32.23695      -10.45837
H         60.47743       32.43855      -11.38744
H         61.06565       33.10444      -10.09718
O         56.86886       29.93670       -7.51798
H         56.06095       29.95947       -8.08979
H         56.51723       29.83978       -6.59750
O         57.12838       32.46595      -10.01242
H         57.11882       32.98201      -10.85725
H         57.28043       33.14212       -9.30581

Ca 1.0



