%chk=apoCaM-CA-Ng.loop1.water4.frame243.chk
%nprocshared=20
%mem=10GB
%nosave
#b3lyp/svp scf=(tight,noincore,xqc) Test 
#IOP(5/87=12) Density=Current Pop=(MK,readradii) iop(6/33=2) iop(6/42=6)

apoCaM-CA-Ng.loop1.water4.frame243 

   0  1 
C         40.48071       14.92043      114.60637
C         39.94683       13.75637      113.82371
O         38.74108       13.55591      113.80511
H         41.58649       14.99213      114.52424
H         40.04190       15.86142      114.21303
H         40.21212       14.80777      115.67645
N         40.79464       12.95300      113.12595
C         40.34018       11.84958      112.28793
C         39.79156       10.66379      113.08147
O         39.47207        9.68977      112.43468
C         41.50765       11.33324      111.40094
C         42.09856       12.37175      110.48030
O         41.63578       13.63718      110.45795
O         43.01124       12.05758      109.73312
H         41.80171       13.17887      113.14024
H         39.54926       12.21971      111.59698
H         41.13726       10.50910      110.75121
H         42.31498       10.92855      112.04959
N         39.70579       10.60375      114.44391
C         39.36955        9.35751      115.14864
C         38.19798        9.52366      116.10941
O         38.15485       10.55678      116.76210
C         40.62931        8.88871      115.90098
C         41.76907        8.63596      114.89183
C         43.01951        7.98665      115.48738
C         42.76465        6.54000      115.94109
N         44.01192        5.89646      116.34667
H         39.99238       11.41248      115.01219
H         39.12450        8.54889      114.44123
H         40.38740        7.95867      116.44306
H         40.94926        9.64137      116.65419
H         42.06906        9.60877      114.44551
H         41.40492        7.98282      114.06937
H         43.41617        8.60184      116.32365
H         43.78319        7.96079      114.67923
H         42.32328        5.96259      115.09753
H         42.05027        6.51773      116.79092
H         44.68133        5.87823      115.54268
H         44.43762        6.41117      117.15089
H         43.80910        4.91253      116.63599
N         37.23786        8.56361      116.35504
C         37.10787        7.21716      115.77748
C         38.32963        6.35712      116.05292
O         39.14953        6.17879      115.16501
C         36.59382        7.21088      114.31849
C         35.17752        7.74222      114.25099
O         34.56911        8.17042      115.38043
O         34.57951        7.76293      113.18786
H         36.53448        8.79779      117.07352
H         36.27874        6.69261      116.29435
H         36.55555        6.15955      113.95853
H         37.25645        7.77827      113.64148
N         38.52418        5.74758      117.26178
C         37.51506        5.74713      118.31720
C         37.91114        4.95040      119.54960
O         39.06154        4.55337      119.66369
H         39.39222        5.20569      117.38786
H         36.62089        5.24127      117.89366
H         37.25651        6.78454      118.62104
N         37.00163        4.60097      120.51105
C         35.57641        4.92717      120.46046
C         34.77319        3.71211      120.02810
O         35.31674        2.61899      119.93783
C         35.06503        5.50772      121.80306
C         35.13615        4.54288      122.96382
O         36.32244        4.10797      123.42885
O         34.11073        4.17947      123.51793
H         37.33352        3.98049      121.26252
H         35.39432        5.70407      119.69169
H         34.00297        5.81067      121.66919
H         35.63731        6.42333      122.06252
N         33.45939        3.85378      119.69635
C         32.60983        2.75894      119.25467
C         32.97120        2.15419      117.90603
O         32.24364        1.26337      117.48937
H         33.02372        4.78486      119.78082
H         31.57202        3.14661      119.15766
H         32.60438        1.96407      120.03090
N         34.04189        2.56037      117.15916
C         34.36322        2.00014      115.84642
C         35.67155        1.22000      115.91614
O         36.32098        1.21263      116.95516
C         34.40153        3.16108      114.80692
C         33.03710        3.84626      114.70514
O         34.74327        2.69400      113.52964
H         34.66355        3.30182      117.50984
H         33.59056        1.26506      115.53116
H         35.16430        3.90139      115.15060
H         35.12103        3.46444      113.02837
H         32.27255        3.12062      114.35196
H         32.72753        4.24676      115.68930
H         33.08817        4.68746      113.98116
N         36.10402        0.51577      114.83114
C         37.34911       -0.24733      114.78169
C         38.38104        0.43209      113.89449
O         39.52394        0.00154      113.89757
C         37.10276       -1.69843      114.25366
C         36.49155       -1.68813      112.81638
C         36.22459       -2.48881      115.23347
C         36.47136       -3.05075      112.12909
H         35.52558        0.54421      113.98288
H         37.80641       -0.28716      115.79586
H         38.09248       -2.20605      114.20680
H         37.09593       -1.02923      112.16042
H         35.45346       -1.29584      112.83157
H         36.69940       -2.50506      116.23704
H         35.21695       -2.03014      115.31870
H         36.11243       -3.54174      114.90463
H         37.50417       -3.44826      112.04042
H         35.83379       -3.77421      112.67302
H         36.05431       -2.93037      111.10530
N         38.03235        1.45285      113.06030
C         38.95495        2.08864      112.13514
C         38.87432        3.59597      112.27443
O         38.00537        4.10140      112.96971
C         38.61017        1.64944      110.68650
C         37.16228        1.99245      110.28051
O         38.80621        0.26288      110.57860
H         37.05885        1.76500      113.02158
H         40.00031        1.77729      112.35236
H         39.31322        2.16605      109.99441
H         38.73054        0.03043      109.61633
H         36.98730        1.70478      109.22332
H         36.42621        1.44200      110.90241
H         36.96408        3.07608      110.37907
N         39.76127        4.38434      111.60811
C         39.63740        5.83745      111.58321
C         38.48411        6.23953      110.65874
O         37.85292        5.37353      110.06980
C         40.99661        6.50379      111.22396
C         41.49658        6.21781      109.80383
O         41.96265        6.07677      112.15249
H         40.52607        3.92803      111.09279
H         39.41044        6.19732      112.60929
H         40.86687        7.60550      111.32001
H         42.64654        6.79369      112.22106
H         40.76070        6.56905      109.05238
H         42.44946        6.76585      109.63896
H         41.69691        5.13932      109.64744
N         38.18304        7.54828      110.45142
C         37.18089        8.01583      109.50076
C         36.31534        9.16962      110.03372
O         35.43059        9.60098      109.30855
C         37.90106        8.33507      108.17380
C         39.02271        9.38331      108.28575
C         39.82306        9.44204      106.97941
C         40.97289       10.45163      107.07178
N         41.76694       10.44529      105.84334
H         38.79665        8.23820      110.87365
H         36.47261        7.19038      109.26565
H         37.16626        8.64447      107.39954
H         38.36261        7.37996      107.83377
H         39.73984        9.09666      109.08211
H         38.58870       10.37535      108.53472
H         39.15228        9.71471      106.13658
H         40.25445        8.43461      106.78075
H         41.63283       10.19121      107.92978
H         40.55776       11.46918      107.24268
H         42.20088        9.50343      105.70295
H         41.16408       10.67999      105.02165
H         42.52795       11.15757      105.92244
N         36.47398        9.69312      111.28856
C         35.61477       10.72836      111.86679
C         35.63902       12.01054      111.05798
O         36.69958       12.59862      110.89493
C         36.06544       11.04378      113.32001
C         35.24300       12.11702      114.06244
C         33.80442       11.74448      114.29420
O         33.04111       11.57756      113.35730
O         33.33606       11.65075      115.55273
H         37.20227        9.30771      111.89314
H         34.58244       10.32347      111.90013
H         37.11594       11.39944      113.29005
H         36.05625       10.12216      113.92634
H         35.28608       13.08236      113.51660
H         35.72086       12.27234      115.05473
N         34.47330       12.52816      110.57578
C         34.37969       13.80124      109.89201
H         33.69900       14.46767      110.46494
H         35.36257       14.30863      109.80230
H         33.95821       13.64826      108.87775
H         33.59235       12.01448      110.72710
Ca        32.47188        8.93405      115.68249
O         31.32924        6.33011      116.18272
H         30.82881        6.03315      115.38160
H         30.86136        5.90541      116.94422
O         30.38082        8.51251      118.56517
H         29.69283        7.84246      118.32390
H         31.05755        8.00129      119.07616
O         31.02266        8.39641      113.24722
H         31.96192        8.08410      113.25803
H         31.09068        9.37726      113.12970
O         30.16018       10.79698      116.40616
H         30.44838       11.43721      117.10435
H         30.23228       11.30338      115.55839

Ca 1.0



