%chk=apoCaM-CA-Ng.loop2.water4.frame1390.chk
%nprocshared=20
%mem=10GB
%nosave
#b3lyp/svp scf=(tight,noincore,xqc) Test 
#IOP(5/87=12) Density=Current Pop=(MK,readradii) iop(6/33=2) iop(6/42=6)

apoCaM-CA-Ng.loop2.water4.frame1390 

   -2  1 
C         11.06211       81.90443       40.92754
C         11.42134       80.45401       41.16190
O         12.29450       79.98400       40.44726
H         10.32404       82.34593       41.61525
H         11.98285       82.51512       41.04338
H         10.68355       82.02996       39.89274
N         10.87692       79.65721       42.13294
C          9.81434       80.04077       43.06202
C          8.66001       79.03992       43.14401
O          7.66607       79.38623       43.76828
C         10.41038       80.38504       44.44527
C         11.23959       79.32097       45.11680
O         11.75183       79.57031       46.19509
O         11.47156       78.12440       44.54946
H         11.29762       78.72297       42.23491
H          9.31868       80.95907       42.71229
H          9.58978       80.68483       45.13184
H         11.07666       81.26510       44.31062
N          8.69239       77.80072       42.56744
C          7.56280       76.87172       42.61042
C          7.74713       75.79117       43.66645
O          6.92375       74.88808       43.72963
C          7.35493       76.26848       41.21766
H          9.55161       77.46811       42.11008
H          6.62186       77.40083       42.87865
H          7.17330       77.07796       40.47911
H          8.24863       75.68712       40.90560
H          6.47109       75.59451       41.21485
N          8.74188       75.87058       44.59559
C          8.88847       74.91603       45.69393
C          9.70275       75.51411       46.84077
O         10.16148       76.64310       46.73445
C          9.44485       73.57527       45.15838
C         10.77569       73.72255       44.47154
O         10.88518       73.45846       43.28434
O         11.85825       74.11793       45.16404
H          9.36761       76.68294       44.56322
H          7.88673       74.73249       46.14118
H          8.71623       73.15935       44.42945
H          9.54240       72.83408       45.97839
N          9.89408       74.82196       47.99928
C         10.61102       75.39025       49.13072
C         12.02642       74.89614       49.12289
O         12.70661       75.10930       48.12974
H          9.53771       73.85818       48.08300
H         10.07204       75.14607       50.07184
H         10.64749       76.49874       49.06754
N         12.54406       74.22226       50.18559
C         13.89208       73.66447       50.18003
C         13.81516       72.15673       50.22149
O         12.73995       71.59884       50.40185
C         14.72235       74.21106       51.36174
C         15.06033       75.67938       51.24844
N         15.76868       76.28341       52.22989
O         14.72197       76.32533       50.26901
H         11.94816       74.05760       51.01176
H         14.41746       73.90916       49.23068
H         15.69134       73.67149       51.41890
H         14.16711       74.02897       52.30755
H         16.06859       75.75545       53.06243
H         16.01970       77.28080       52.15744
N         14.94014       71.42713       49.98458
C         14.95606       69.97881       49.90109
C         14.08071       69.45248       48.77167
O         13.39721       70.22909       48.11912
H         15.83151       71.92123       49.82646
H         14.61517       69.54987       50.86848
H         16.00276       69.65735       49.72290
N         14.02366       68.12525       48.46844
C         14.88337       67.11951       49.08550
C         16.31461       67.18754       48.53061
O         17.16581       66.47291       49.04109
C         14.28842       65.70269       48.89406
C         12.90457       65.58613       49.55486
O         14.19214       65.40399       47.52516
H         13.35938       67.82998       47.73535
H         14.91461       67.29857       50.18299
H         14.97075       64.97467       49.39176
H         14.06969       64.42148       47.45334
H         12.17555       66.28619       49.09492
H         12.51325       64.55373       49.43811
H         12.97565       65.81056       50.64074
N         16.65175       68.02117       47.49537
C         17.99359       68.16961       46.92811
C         18.47944       69.58436       47.24949
O         17.74950       70.51817       46.94365
C         17.96445       67.91955       45.37910
C         18.04256       66.41478       45.00618
C         19.13835       68.61323       44.65134
C         16.94129       65.52857       45.56960
H         15.92725       68.62375       47.08161
H         18.67020       67.42850       47.37033
H         17.03835       68.37150       44.95775
H         19.02076       66.00357       45.34343
H         18.00086       66.32638       43.89807
H         20.11574       68.25115       45.03453
H         19.07964       68.42191       43.55909
H         19.09403       69.71668       44.76931
H         15.94348       65.89672       45.25658
H         17.08397       64.49484       45.18847
H         17.00711       65.47438       46.66953
N         19.67580       69.86922       47.85702
C         20.70262       68.90593       48.25908
C         22.11316       69.36499       47.90779
O         22.45700       70.50724       48.17839
C         20.62331       68.63343       49.77626
C         20.82968       69.84937       50.63992
O         21.88098       69.90555       51.47959
O         20.03720       70.77680       50.60589
H         19.85547       70.86040       48.08097
H         20.56657       67.92245       47.78455
H         21.40367       67.88010       50.02877
H         19.63603       68.18604       50.02028
N         23.03921       68.44012       47.50513
C         24.47865       68.67363       47.61619
C         25.24123       67.94580       46.51391
O         24.92175       66.79131       46.26691
C         24.89551       68.16804       49.01556
C         26.30191       68.56250       49.39395
C         27.42033       67.92884       48.82426
C         26.50141       69.59124       50.33200
C         28.71228       68.33149       49.17728
C         27.79263       69.99143       50.67897
C         28.89781       69.36394       50.10089
H         22.72607       67.46198       47.40654
H         24.69546       69.75968       47.60506
H         24.74870       67.07160       49.12836
H         24.20056       68.65511       49.73567
H         27.29661       67.12793       48.10763
H         25.65675       70.09682       50.78453
H         29.57013       67.84526       48.73208
H         27.93380       70.79180       51.39365
H         29.89732       69.67821       50.37015
N         26.30362       68.49960       45.84121
C         26.90121       69.80338       46.09308
C         26.00085       70.92184       45.62801
O         25.83901       71.87866       46.36931
C         28.25593       69.71571       45.37758
C         27.97447       68.81276       44.20198
C         27.04400       67.76973       44.82398
H         27.14425       69.97797       47.16170
H         28.74645       70.68713       45.15520
H         28.94102       69.13485       46.03954
H         27.42055       69.41251       43.45350
H         28.86766       68.38895       43.69537
H         26.39133       67.34448       44.03071
H         27.61341       66.95807       45.32757
N         25.30035       70.82664       44.46750
C         24.32281       71.82292       44.06047
C         25.04677       73.02780       43.47576
O         25.70804       72.86128       42.46043
C         23.36188       71.20567       43.01903
C         22.58694       70.00606       43.60582
C         21.75451       69.33228       42.55636
O         21.97370       68.03717       42.25535
O         20.87345       69.94613       41.97700
H         25.38798       69.96834       43.90863
H         23.69875       72.09555       44.93798
H         23.95063       70.86560       42.13770
H         22.63232       71.97389       42.68074
H         21.93542       70.34725       44.43928
H         23.28692       69.24688       44.01413
N         25.00330       74.27578       44.02558
C         24.30177       74.60907       45.24611
H         23.21809       74.39784       45.14346
H         24.72071       74.04025       46.09850
H         24.43434       75.68897       45.47068
H         25.51646       75.03646       43.55286
Ca        12.89625       76.71933       45.59093
O         15.54042       78.03293       45.70493
H         15.32778       78.93517       46.05280
H         16.48591       78.08951       45.41781
O         15.34359       74.99208       46.59611
H         15.23994       74.02509       46.78173
H         16.30734       75.10715       46.40137
O         13.29173       78.08558       48.37928
H         12.88139       77.80620       49.23530
H         13.21166       79.07147       48.38181
O         14.19387       76.07781       43.00260
H         13.93079       75.12712       43.08990
H         15.18234       76.05936       42.95072

Ca 1.0



