%chk=apoCaM-CA-Ng.loop4.water4.frame274.chk
%nprocshared=20
%mem=10GB
%nosave
#b3lyp/svp scf=(tight,noincore,xqc) Test 
#IOP(5/87=12) Density=Current Pop=(MK,readradii) iop(6/33=2) iop(6/42=6)

apoCaM-CA-Ng.loop4.water4.frame274 

   -3  1 
C         35.15713       39.50756        8.68309
C         35.95644       38.58926        7.81285
O         36.65776       37.75795        8.35712
H         34.07553       39.36605        8.48508
H         35.35132       39.28289        9.75657
H         35.44762       40.55912        8.48642
N         35.89402       38.67044        6.45055
C         36.64814       37.80356        5.54640
C         36.69596       36.34279        5.96495
O         37.75278       35.85394        6.32538
C         37.96856       38.42208        5.01222
C         38.82644       39.30080        5.90085
O         39.42665       38.91027        7.04199
O         39.04862       40.44024        5.52139
H         35.27184       39.37713        6.03043
H         36.06165       37.72112        4.60149
H         37.67567       39.08905        4.16827
H         38.58211       37.62378        4.54655
N         35.55201       35.59455        5.88683
C         35.39976       34.15987        6.14786
C         36.01737       33.29923        5.03815
O         35.25096       32.61435        4.37252
C         35.79670       33.76209        7.59634
C         35.53389       32.26022        7.90114
C         35.03981       34.64705        8.60648
C         34.06446       31.82019        7.81572
H         34.69032       36.08868        5.60543
H         34.30573       33.96741        6.07595
H         36.88594       33.93002        7.73551
H         35.89303       32.04198        8.93075
H         36.12974       31.63345        7.20400
H         33.94141       34.57248        8.46802
H         35.28085       34.35720        9.64569
H         35.31209       35.70880        8.47776
H         33.43663       32.36636        8.54973
H         33.65146       31.96461        6.79800
H         33.98916       30.73946        8.04948
N         37.35038       33.28999        4.73524
C         37.87207       32.55967        3.58364
C         37.97905       31.05990        3.85583
O         37.30864       30.32443        3.14451
C         39.16666       33.19924        3.02727
C         38.91821       34.60028        2.52982
O         39.61370       35.63326        3.03859
O         38.10175       34.80533        1.64517
H         38.00345       33.87308        5.26380
H         37.14902       32.67845        2.74217
H         39.52689       32.59765        2.16438
H         39.96908       33.24416        3.78131
N         38.75779       30.47831        4.81947
C         39.61345       31.19124        5.75971
C         40.38256       30.25824        6.69675
O         40.19408       29.05385        6.61107
H         38.72118       29.44893        4.86425
H         38.98163       31.87105        6.36514
H         40.34887       31.75056        5.18345
N         41.27011       30.69302        7.64716
C         41.70163       32.06091        7.90665
C         40.51798       32.96880        8.19620
O         40.30134       33.90725        7.44247
C         42.63407       32.55426        6.76474
C         43.33473       33.84220        7.09950
O         43.20154       34.82046        6.38262
O         44.15269       33.90794        8.16707
H         41.69866       29.97397        8.25080
H         42.34622       32.04754        8.81439
H         42.09280       32.68727        5.81385
H         43.42577       31.79288        6.59813
N         39.69423       32.80634        9.27227
C         39.81606       31.81438       10.32720
C         39.24848       30.48269        9.92148
O         38.13713       30.45215        9.41243
H         38.93160       33.48542        9.38656
H         39.16512       32.14681       11.16492
H         40.84942       31.76919       10.73217
N         39.92597       29.32468       10.16757
C         39.38571       28.01338        9.80875
C         38.09149       27.65175       10.54132
O         37.49476       26.65092       10.16860
C         40.43676       26.89985       10.01170
C         40.76603       26.63427       11.49203
C         41.79267       25.54074       11.62547
N         42.97729       25.77589       12.23560
O         41.54945       24.42643       11.18578
H         40.86377       29.38912       10.59152
H         39.15773       28.05010        8.72206
H         41.36310       27.17768        9.46122
H         40.04657       25.95992        9.56150
H         39.84942       26.31369       12.03146
H         41.13754       27.56411       11.97004
H         43.20016       26.70596       12.61882
H         43.67523       25.02325       12.32819
N         37.59324       28.39959       11.57371
C         36.31962       28.10449       12.23433
C         36.43709       27.88789       13.73798
O         35.43148       27.51198       14.32606
C         35.28943       29.23377       11.94969
C         34.87136       29.22694       10.47674
C         35.80724       30.63014       12.35034
H         38.11505       29.22756       11.88716
H         35.89763       27.15289       11.84191
H         34.36800       29.02526       12.53773
H         35.73437       29.42535        9.80946
H         34.43625       28.23905       10.21234
H         34.09341       29.99950       10.30715
H         35.01450       31.39121       12.19486
H         36.10455       30.64954       13.41986
H         36.67860       30.93360       11.73309
N         37.58343       28.11491       14.44000
C         37.66982       27.92050       15.88424
C         37.89650       29.24836       16.57453
O         37.11677       29.60386       17.44769
C         38.80742       26.93973       16.22781
C         38.59317       25.58709       15.59830
N         39.50132       25.07731       14.73368
O         37.59354       24.94162       15.87700
H         38.42352       28.45381       13.95224
H         36.72881       27.48846       16.29471
H         38.85825       26.80736       17.33130
H         39.77832       27.35998       15.88977
H         40.35335       25.60305       14.48992
H         39.35415       24.15143       14.30574
N         38.97141       30.01807       16.25034
C         39.35115       31.23125       16.96427
C         39.42536       32.41577       16.00437
O         39.11504       32.25879       14.83390
C         40.75391       30.98121       17.57079
C         40.82837       29.67606       18.33049
C         40.13047       29.48387       19.53443
C         41.59911       28.62274       17.80894
C         40.20803       28.25471       20.20273
C         41.66613       27.39683       18.47022
C         40.97439       27.20636       19.66844
O         41.05324       26.01413       20.29283
H         39.60310       29.69740       15.50114
H         38.63518       31.45977       17.78527
H         41.07921       31.81255       18.23106
H         41.47117       30.93733       16.72116
H         39.53195       30.28184       19.95580
H         42.13703       28.74336       16.87682
H         39.67078       28.11560       21.13238
H         42.25461       26.59342       18.04550
H         40.59242       25.83511       21.12427
N         39.89681       33.61568       16.45654
C         40.28341       34.80643       15.68745
C         39.19008       35.58790       14.97570
O         39.47164       36.72882       14.63162
C         41.51419       34.58390       14.76715
C         41.29043       33.71561       13.51682
C         42.50766       33.69792       12.64158
O         43.12404       32.53219       12.36736
O         42.93658       34.73449       12.16168
H         40.08800       33.68014       17.46820
H         40.64373       35.52087       16.46451
H         42.34481       34.15287       15.36604
H         41.83846       35.59030       14.41970
H         40.44264       34.11295       12.92322
H         41.09406       32.66933       13.80220
N         37.94248       35.10293       14.73195
C         36.89453       35.91014       14.11658
C         35.74738       36.11263       15.09920
O         34.80390       36.81330       14.75835
C         36.38525       35.22542       12.82967
C         37.49043       34.83558       11.82672
C         38.15217       35.97632       11.11115
O         37.83213       37.13493       11.32443
O         39.02771       35.70336       10.12637
H         37.70014       34.14286       14.99820
H         37.27617       36.92040       13.85211
H         35.63191       35.87118       12.32171
H         35.87828       34.28298       13.12502
H         37.01900       34.22063       11.03676
H         38.24702       34.19845       12.32052
N         35.75383       35.53737       16.34035
C         34.68076       35.71766       17.28814
H         33.72735       35.34770       16.85736
H         34.90097       35.13851       18.21168
H         34.59105       36.79068       17.55479
H         36.53384       34.94272       16.64989
Ca        39.19905       37.29041        8.56937
O         40.75445       36.65957        5.67186
H         41.69244       36.67062        5.35855
H         40.44894       35.73095        5.52062
O         40.06939       39.73752        9.87091
H         39.35500       39.20922       10.30764
H         40.90477       39.42161       10.29748
O         42.31361       38.26241        7.69542
H         43.10710       38.30360        8.28547
H         42.13636       39.20466        7.44981
O         41.86904       35.93748        9.50810
H         42.82718       35.88391        9.26888
H         41.65431       35.04362        9.87391

Ca 1.0



