%chk=apoCaM-CA-Ng.loop1.water3.frame312.chk
%nprocshared=20
%mem=10GB
%nosave
#b3lyp/svp scf=(tight,noincore,xqc) Test 
#IOP(5/87=12) Density=Current Pop=(MK,readradii) iop(6/33=2) iop(6/42=6)

apoCaM-CA-Ng.loop1.water3.frame312 

   0  1 
C         41.47609       87.01871       38.86683
C         42.73239       87.82579       38.73664
O         43.79512       87.29717       39.03165
H         40.58452       87.60120       38.55562
H         41.55195       86.11624       38.22350
H         41.34726       86.70038       39.92237
N         42.69213       89.11607       38.29193
C         43.88926       89.92688       38.11627
C         43.83296       91.14386       39.02883
O         44.00619       92.25481       38.55898
C         44.02649       90.33904       36.62852
C         44.11057       89.16551       35.69050
O         43.08153       88.30324       35.58330
O         45.09700       89.01192       34.98818
H         41.78133       89.53865       38.05460
H         44.79688       89.35401       38.40345
H         44.94066       90.95241       36.50461
H         43.15385       90.96074       36.33019
N         43.56480       91.01782       40.35759
C         43.53442       92.16481       41.26354
C         44.23644       91.82425       42.56838
O         43.82638       90.85312       43.18929
C         42.08124       92.60535       41.54863
C         41.43334       93.25255       40.30969
C         40.06253       93.86083       40.63526
C         39.49821       94.62070       39.42419
N         38.20723       95.23201       39.74003
H         43.32066       90.08607       40.72738
H         44.02195       93.03357       40.79738
H         42.11405       93.38834       42.33802
H         41.46937       91.75657       41.92566
H         41.33162       92.50835       39.49068
H         42.09551       94.07705       39.96186
H         40.17354       94.57995       41.47684
H         39.35921       93.05663       40.94197
H         39.37734       93.92462       38.56502
H         40.21224       95.42204       39.12680
H         38.31129       95.90439       40.53478
H         37.86146       95.75442       38.90256
H         37.51089       94.49342       39.99070
N         45.24526       92.56894       43.12587
C         45.86885       93.78313       42.59637
C         44.86967       94.89272       42.27670
O         44.87034       95.38754       41.15768
C         46.81311       93.46593       41.40997
C         48.07136       92.74777       41.81645
O         48.31043       92.43106       43.10167
O         48.92086       92.50189       40.97630
H         45.58437       92.26434       44.05210
H         46.51775       94.21862       43.38900
H         47.16918       94.41654       40.97813
H         46.28019       92.90056       40.61930
N         44.01167       95.40535       43.19883
C         43.84717       94.89005       44.54840
C         42.85418       95.75040       45.30107
O         41.79145       96.01062       44.75365
H         43.43109       96.20507       42.89770
H         44.82961       94.86490       45.05863
H         43.43865       93.86038       44.48796
N         43.08411       96.25881       46.54416
C         44.15247       95.83466       47.44219
C         45.33231       96.77890       47.38149
O         45.14508       97.98373       47.48524
C         43.62741       95.78275       48.89477
C         42.50363       94.79290       49.06698
O         42.65364       93.74431       49.89827
O         41.44680       94.94084       48.47387
H         42.34524       96.86032       46.94321
H         44.47702       94.79479       47.21798
H         43.27889       96.78803       49.21805
H         44.46373       95.47766       49.56239
N         46.60000       96.28001       47.32714
C         47.77649       97.12350       47.42423
C         48.04030       97.87215       46.14576
O         48.02379       99.09471       46.14272
H         46.73867       95.25764       47.32545
H         48.67002       96.48910       47.61601
H         47.66899       97.80902       48.29368
N         48.37837       97.17542       45.02691
C         48.77967       97.80860       43.77546
C         47.60627       98.52234       43.13527
O         46.56891       97.90661       42.92779
C         49.37250       96.77203       42.78959
C         50.63712       96.11766       43.36523
O         49.72233       97.42634       41.59713
H         48.40837       96.14673       45.09761
H         49.59714       98.53619       43.98299
H         48.60123       95.99368       42.58235
H         49.82283       96.72738       40.89992
H         51.41004       96.89018       43.56973
H         50.42469       95.57465       44.30608
H         51.05039       95.39099       42.63501
N         47.73032       99.82521       42.74849
C         46.66232      100.56820       42.08197
C         46.27238       99.89693       40.76578
O         45.15167      100.10292       40.32249
C         47.08279      102.05870       41.81409
C         47.56071      102.81970       43.08451
C         45.97230      102.87304       41.11437
C         46.52079      102.93907       44.19904
H         48.63451      100.28646       42.91594
H         45.77595      100.55449       42.75405
H         47.95210      102.04299       41.11825
H         47.87451      103.84441       42.78615
H         48.46204      102.33915       43.51210
H         45.04381      102.89559       41.72112
H         46.31364      103.91542       40.93823
H         45.72970      102.45768       40.11633
H         45.62251      103.48910       43.85408
H         46.22676      101.93732       44.57259
H         46.96356      103.50587       45.04522
N         47.15623       99.11913       40.06804
C         46.84951       98.54514       38.76036
C         46.86403       97.02497       38.78417
O         47.41276       96.42759       39.69379
C         47.80104       99.11694       37.67819
C         49.28364       98.81875       37.94830
O         47.64124      100.51002       37.59996
H         48.09184       98.95738       40.45679
H         45.81542       98.82884       38.46874
H         47.55429       98.65903       36.69156
H         46.82087      100.67736       37.06650
H         49.90321       99.23277       37.12481
H         49.62902       99.29635       38.88904
H         49.46550       97.72573       38.00876
N         46.17862       96.34769       37.81752
C         46.00041       94.89275       37.77405
C         47.29651       94.13220       37.50141
O         48.32710       94.75331       37.27462
C         44.91272       94.53243       36.71208
C         45.26382       94.92765       35.27358
O         43.69788       95.14362       37.07575
H         45.68146       96.92423       37.12499
H         45.61365       94.55731       38.76006
H         44.78638       93.43234       36.68239
H         42.98860       94.44793       37.05965
H         46.20286       94.43266       34.95204
H         44.44601       94.59577       34.59822
H         45.37135       96.02358       35.15571
N         47.28633       92.76223       37.45701
C         48.42119       91.94375       37.03966
C         48.75379       90.81757       38.03300
O         49.75193       90.14657       37.82014
C         48.04511       91.33523       35.66486
C         49.19649       90.67739       34.88563
C         48.66479       90.04067       33.59370
C         49.79955       89.43803       32.75599
N         49.26941       88.75830       31.57396
H         46.39776       92.27710       37.63057
H         49.31591       92.59211       36.91337
H         47.65158       92.15042       35.01683
H         47.22629       90.59974       35.82165
H         49.67822       89.87297       35.47300
H         49.95638       91.45376       34.64715
H         48.13143       90.80200       32.98323
H         47.94563       89.23653       33.86671
H         50.37274       88.70610       33.36718
H         50.49133       90.24998       32.43838
H         48.65961       87.95989       31.86627
H         48.71795       89.42535       30.98684
H         50.06449       88.38377       31.00769
N         47.96500       90.51083       39.11209
C         48.23515       89.35227       39.96731
C         48.11728       88.07669       39.15063
O         47.05980       87.82205       38.58973
C         47.24404       89.28631       41.16348
C         47.43862       88.03509       42.05197
C         48.81011       87.96017       42.66685
O         49.58200       87.07672       42.32917
O         49.18414       88.83227       43.62241
H         47.13641       91.08108       39.32030
H         49.26004       89.44854       40.38957
H         46.20220       89.26893       40.77497
H         47.35369       90.19302       41.78769
H         47.26402       87.12983       41.43191
H         46.68243       88.02189       42.86517
N         49.15984       87.20539       39.07538
C         49.05795       85.94965       38.36473
H         50.01099       85.38606       38.45196
H         48.24429       85.33320       38.80526
H         48.84377       86.13373       37.29120
H         50.04461       87.42385       39.55742
Ca        47.67971       90.18866       44.62402
O         49.72094       92.89488       47.68621
H         48.76040       93.11981       47.60165
H         50.18302       93.77052       47.66762
O         51.88624       89.87183       45.07969
H         52.04648       89.68190       44.12110
H         51.56155       89.01373       45.45214
O         50.92671       92.86482       44.71033
H         51.37589       93.51208       45.31001
H         51.44483       92.90712       43.86767

Ca 1.0



