%chk=apoCaM-CA-Ng.loop4.water3.frame368.chk
%nprocshared=20
%mem=10GB
%nosave
#b3lyp/svp scf=(tight,noincore,xqc) Test 
#IOP(5/87=12) Density=Current Pop=(MK,readradii) iop(6/33=2) iop(6/42=6)

apoCaM-CA-Ng.loop4.water3.frame368 

   -3  1 
C         65.55546       98.39479       26.01720
C         66.84788       99.15182       26.01360
O         66.82982      100.32934       25.70463
H         64.71530       99.05797       25.71308
H         65.61561       97.54775       25.30381
H         65.35026       98.01137       27.03786
N         68.01290       98.53986       26.37103
C         69.30840       99.21024       26.41672
C         69.33054      100.36737       27.39578
O         69.42900      101.50101       26.97491
C         69.94667       99.47927       25.01997
C         69.16768      100.03340       23.83614
O         68.62380      101.26859       23.75998
O         69.10855       99.34080       22.83183
H         67.97499       97.55064       26.66039
H         70.04706       98.50303       26.86131
H         70.29496       98.47732       24.67662
H         70.86923      100.08295       25.16373
N         69.31279      100.10533       28.73998
C         69.42955      101.05939       29.85278
C         70.82978      101.69083       29.92834
O         71.55430      101.37329       30.86172
C         68.26168      102.08617       29.89361
C         68.28627      102.97071       31.17492
C         66.89963      101.37612       29.76477
C         68.12651      102.22629       32.50709
H         69.22303       99.11429       29.01547
H         69.33007      100.43693       30.76935
H         68.35770      102.76720       29.02082
H         67.46826      103.71992       31.10078
H         69.24152      103.52297       31.23008
H         66.82759      100.83367       28.79932
H         66.74952      100.63801       30.57991
H         66.07423      102.11772       29.79260
H         68.14297      102.96278       33.33812
H         67.16127      101.68397       32.55762
H         68.96152      101.51714       32.67787
N         71.29816      102.55313       28.97997
C         72.67141      103.04153       28.93680
C         72.96610      104.11173       29.98949
O         73.93642      103.92982       30.71083
C         73.02875      103.51396       27.50245
C         74.45826      103.96774       27.38775
O         75.46449      103.12000       27.67470
O         74.71306      105.10481       27.02339
H         70.68846      102.83130       28.20970
H         73.35340      102.17500       29.10326
H         72.37021      104.32539       27.15292
H         72.88166      102.66293       26.80267
N         72.25903      105.27462       30.13534
C         70.99922      105.55561       29.46741
C         70.48774      106.96262       29.73267
O         70.54447      107.38259       30.87961
H         72.61971      105.96700       30.81056
H         70.24775      104.84470       29.84487
H         71.08872      105.37816       28.40861
N         69.88358      107.74904       28.78044
C         69.56762      107.36880       27.40130
C         68.73407      106.08555       27.43168
O         69.19649      105.05698       26.95921
C         70.83468      107.35529       26.51072
C         70.48146      107.18276       25.05837
O         70.95578      106.26256       24.41405
O         69.65843      108.06176       24.45341
H         69.53174      108.66934       29.08844
H         68.95797      108.17736       26.94723
H         71.57299      106.59024       26.80146
H         71.33695      108.34136       26.61108
N         67.51769      106.03309       28.05480
C         66.75206      107.19757       28.46371
C         66.68699      107.38706       29.94829
O         67.23959      106.60394       30.70874
H         67.07337      105.11841       28.20103
H         65.72708      107.11649       28.04215
H         67.17987      108.12964       28.06151
N         66.05652      108.50000       30.41437
C         66.06213      108.89929       31.81281
C         65.01893      108.16472       32.64595
O         65.21264      108.10173       33.85228
C         66.10858      110.44332       31.98484
C         65.06766      111.27363       31.20565
C         63.65758      110.91512       31.53611
N         63.18775      111.07676       32.78931
O         62.92325      110.48923       30.65811
H         65.65236      109.13115       29.71163
H         67.03544      108.56251       32.23972
H         67.09602      110.79362       31.61107
H         66.06599      110.68634       33.06827
H         65.22773      111.16653       30.11330
H         65.22110      112.35039       31.43104
H         63.78744      111.44730       33.53996
H         62.21552      110.83856       33.00046
N         63.94187      107.52583       32.09182
C         63.10850      106.58478       32.85307
C         61.66667      107.02612       33.07653
O         60.96209      106.29352       33.75946
C         63.10104      105.18924       32.15082
C         64.51321      104.61043       32.00030
C         62.40656      105.22125       30.77455
H         63.75368      107.65327       31.08802
H         63.53387      106.44869       33.87140
H         62.52636      104.48422       32.79215
H         64.46294      103.59445       31.55149
H         65.13063      105.24791       31.33725
H         65.00483      104.52856       32.99170
H         61.36186      105.58459       30.86062
H         62.94822      105.85980       30.04646
H         62.36029      104.19504       30.36601
N         61.12970      108.14496       32.51450
C         59.70419      108.45860       32.60635
C         59.02697      108.33768       31.24725
O         57.81769      108.51181       31.20691
C         59.46884      109.87319       33.18649
C         59.93122      110.02483       34.61739
N         59.40280      109.26144       35.60139
O         60.76332      110.87216       34.90132
H         61.72418      108.75108       31.93800
H         59.17887      107.72820       33.25788
H         58.37968      110.09565       33.18106
H         59.96298      110.62433       32.53263
H         58.67999      108.55748       35.39691
H         59.70975      109.38608       36.57768
N         59.70991      108.02311       30.10040
C         59.05360      107.93508       28.79231
C         59.97471      107.41407       27.68889
O         61.17483      107.31133       27.88351
C         58.44742      109.31419       28.40193
C         59.40521      110.46728       28.64691
C         60.59771      110.61064       27.91626
C         59.10476      111.41126       29.64798
C         61.47170      111.67000       28.18991
C         59.97982      112.46420       29.92147
C         61.16627      112.59765       29.19744
O         62.00483      113.61438       29.48260
H         60.71979      107.84329       30.15153
H         58.24206      107.17767       28.86419
H         57.54749      109.47314       29.02914
H         58.07652      109.32336       27.35589
H         60.85755      109.90804       27.13773
H         58.19670      111.32705       30.23222
H         62.38967      111.76535       27.62405
H         59.73643      113.17345       30.70305
H         62.84380      113.73745       29.01656
N         59.42218      107.08124       26.48023
C         60.10613      106.59296       25.28045
C         60.55349      105.13033       25.34505
O         60.14201      104.37634       24.47287
C         61.23473      107.53560       24.81681
C         61.65979      107.20258       23.37037
C         62.72282      108.11816       22.83245
O         63.11550      107.96970       21.68617
O         63.24682      109.10226       23.58872
H         58.40617      107.22696       26.37801
H         59.33981      106.63287       24.47034
H         62.10596      107.47001       25.50288
H         60.84873      108.57877       24.82493
H         60.76984      107.29128       22.70748
H         62.03792      106.15964       23.31415
N         61.40621      104.65106       26.29890
C         61.93485      103.28408       26.28769
C         60.85537      102.20533       26.35551
O         61.20382      101.04677       26.16966
C         62.90539      103.04688       27.47578
C         64.11586      103.99589       27.58560
C         65.11208      103.79292       26.48540
O         64.81839      104.01973       25.32378
O         66.34993      103.36503       26.79607
H         61.72881      105.28388       27.03043
H         62.47526      103.14609       25.32697
H         63.29450      102.00403       27.44523
H         62.30891      103.14767       28.40382
H         64.62477      103.76692       28.54739
H         63.81306      105.06046       27.62895
N         59.54673      102.48488       26.62725
C         58.51228      101.46999       26.67351
H         57.72865      101.71286       25.92577
H         58.89917      100.45330       26.44983
H         58.05513      101.45548       27.68440
H         59.25044      103.44987       26.82484
Ca        67.85556      102.76454       25.24947
O         67.27454      105.71292       24.34118
H         66.48822      105.91777       23.77559
H         68.04419      105.75120       23.71974
O         70.91466      103.31097       24.84241
H         70.47345      103.68622       24.03956
H         71.68334      102.79958       24.48582
O         65.96685      102.79477       22.75215
H         65.51717      102.28790       23.47397
H         65.82460      102.24479       21.94181

Ca 1.0



