%chk=apoCaM-CA-Ng.loop4.water6.frame904.chk
%nprocshared=20
%mem=10GB
%nosave
#b3lyp/svp scf=(tight,noincore,xqc) Test 
#IOP(5/87=12) Density=Current Pop=(MK,readradii) iop(6/33=2) iop(6/42=6)

apoCaM-CA-Ng.loop4.water6.frame904 

   -3  1 
C         76.83531       -6.64366       45.92558
C         76.32019       -7.98183       46.36487
O         77.10632       -8.90731       46.50640
H         77.93373       -6.67751       45.76238
H         76.34096       -6.33768       44.98101
H         76.61390       -5.88850       46.70888
N         74.99083       -8.14433       46.62267
C         74.38638       -9.38445       47.09898
C         75.01289       -9.76488       48.43435
O         75.53423      -10.86236       48.58418
C         74.48730      -10.48039       46.00600
C         73.72842      -11.74413       46.32156
O         73.02777      -11.87613       47.46521
O         73.73735      -12.66270       45.51790
H         74.36851       -7.32987       46.50347
H         73.30517       -9.18455       47.27241
H         75.55051      -10.74255       45.82222
H         74.06704      -10.07148       45.06094
N         75.05344       -8.84126       49.43743
C         75.75868       -9.07436       50.69431
C         75.01849      -10.08415       51.57296
O         73.79731      -10.02436       51.60747
C         76.04860       -7.75858       51.47803
C         74.76219       -7.04025       51.96557
C         76.94555       -6.83422       50.62749
C         75.04799       -5.84194       52.87155
H         74.65216       -7.91166       49.24903
H         76.75200       -9.46383       50.40287
H         76.63770       -8.04752       52.37774
H         74.15701       -7.74489       52.57132
H         74.14671       -6.70334       51.10570
H         77.86339       -7.37592       50.31265
H         76.41742       -6.48081       49.71748
H         77.28188       -5.95230       51.20656
H         74.08783       -5.41584       53.23045
H         75.64398       -6.16242       53.75282
H         75.58922       -5.04117       52.32985
N         75.64114      -11.05651       52.30935
C         77.08545      -11.26542       52.37969
C         77.51356      -12.40888       51.48104
O         78.70911      -12.56167       51.27040
C         77.57574      -11.40422       53.83743
C         77.07438      -12.60941       54.59408
O         77.45661      -12.78149       55.87364
O         76.34244      -13.43621       54.07375
H         75.03504      -11.71958       52.81648
H         77.61591      -10.37715       51.99974
H         77.27265      -10.49052       54.39345
H         78.68683      -11.44837       53.83583
N         76.59790      -13.20766       50.85547
C         76.95584      -14.15614       49.82287
C         77.89714      -15.24386       50.26508
O         78.25494      -15.34581       51.43084
H         75.59169      -13.10045       51.04453
H         77.43633      -13.59369       48.99407
H         76.03423      -14.63503       49.42416
N         78.34786      -16.10407       49.31585
C         79.27124      -17.19972       49.57321
C         80.64213      -16.76869       50.09308
O         81.38200      -17.66116       50.48183
C         79.39294      -18.10861       48.31460
C         79.60150      -17.38186       47.00082
O         78.76266      -17.48005       46.11924
O         80.68240      -16.62235       46.77656
H         77.97946      -15.97582       48.36144
H         78.83552      -17.83064       50.37997
H         78.43217      -18.65901       48.21816
H         80.19178      -18.86739       48.46109
N         81.06916      -15.46965       50.17418
C         82.39352      -15.13915       50.69982
C         83.52855      -15.67763       49.83583
O         84.66963      -15.64315       50.27152
H         80.45903      -14.69663       49.87433
H         82.47377      -15.56482       51.72406
H         82.51544      -14.03700       50.78304
N         83.28356      -16.15112       48.58088
C         84.26529      -16.70127       47.65536
C         85.32955      -15.69643       47.25940
O         86.37386      -16.10181       46.76523
C         84.79218      -18.07859       48.11914
C         83.62329      -19.08449       48.19710
C         84.02503      -20.50190       48.50761
N         83.07154      -21.46106       48.57470
O         85.19698      -20.79765       48.68838
H         82.33214      -16.09190       48.22722
H         83.74145      -16.90747       46.69494
H         85.31567      -18.00189       49.09638
H         85.51080      -18.45746       47.35958
H         83.09572      -19.10162       47.21812
H         82.90916      -18.75566       48.97135
H         82.07912      -21.22580       48.41978
H         83.32108      -22.44037       48.77594
N         85.07013      -14.35750       47.31800
C         85.96108      -13.33480       46.78493
C         85.27625      -12.47070       45.71952
O         85.96425      -11.64538       45.13983
C         86.50467      -12.43433       47.93184
C         85.38327      -11.70182       48.69319
C         87.35570      -13.24969       48.91467
H         84.18516      -14.04516       47.74001
H         86.83434      -13.81216       46.28609
H         87.17136      -11.66481       47.48296
H         84.77908      -11.07982       48.00095
H         84.71045      -12.41606       49.21248
H         85.82034      -11.02870       49.46013
H         87.78012      -12.58337       49.69584
H         86.74967      -14.03522       49.41235
H         88.19972      -13.73380       48.37897
N         83.93102      -12.54923       45.45305
C         83.23970      -11.62095       44.55433
C         82.39704      -12.40444       43.53874
O         82.29420      -13.61407       43.67095
C         82.36732      -10.71844       45.46184
C         81.87197       -9.41183       44.89146
N         81.06412       -8.62963       45.64359
O         82.21528       -9.02875       43.78550
H         83.34094      -13.21510       45.96523
H         83.98658      -10.99634       44.02060
H         82.97792      -10.41804       46.34149
H         81.51265      -11.32228       45.83925
H         80.77491       -8.92852       46.58680
H         80.72534       -7.72540       45.28397
N         81.78691      -11.78790       42.47780
C         80.97565      -12.53333       41.50969
C         80.76135      -11.76451       40.21007
O         81.11840      -10.60062       40.11770
C         79.61882      -12.97308       42.12593
C         78.62069      -11.84039       42.31495
C         78.89906      -10.74028       43.14480
C         77.37948      -11.88691       41.65250
C         77.97074       -9.70266       43.29057
C         76.44716      -10.85797       41.81222
C         76.74030       -9.75910       42.62178
O         75.83363       -8.76908       42.74684
H         81.96447      -10.79398       42.32122
H         81.56340      -13.43436       41.22731
H         79.78640      -13.48191       43.09773
H         79.17031      -13.73114       41.44810
H         79.83163      -10.67824       43.67731
H         77.12680      -12.72113       41.01051
H         78.20884       -8.85761       43.92428
H         75.49524      -10.91253       41.30012
H         75.99929       -7.98244       43.28362
N         80.21517      -12.40464       39.13332
C         80.04434      -11.77158       37.83323
C         78.58885      -11.88293       37.39365
O         78.24657      -12.88150       36.77533
C         80.97257      -12.44141       36.79621
C         82.45629      -12.26023       37.14758
C         83.33442      -12.91317       36.11977
O         84.17628      -13.89999       36.48152
O         83.29708      -12.54864       34.95509
H         79.95478      -13.39742       39.22204
H         80.35517      -10.71497       37.86116
H         80.78584      -11.97823       35.80118
H         80.74251      -13.52837       36.72954
H         82.66441      -12.71374       38.14033
H         82.70231      -11.17710       37.19485
N         77.63269      -10.95262       37.69008
C         77.84051       -9.73904       38.47925
C         78.78854       -8.75294       37.81744
O         79.14972       -8.93042       36.66083
C         76.47824       -9.06234       38.77883
C         75.75943       -8.52713       37.52378
C         74.37324       -8.06254       37.86506
O         74.18848       -7.06780       38.75081
O         73.40422       -8.58861       37.34028
H         76.67547      -11.17444       37.37574
H         78.28357      -10.05479       39.44900
H         76.61509       -8.22795       39.50109
H         75.82751       -9.82173       39.25954
H         75.67491       -9.32079       36.75345
H         76.33371       -7.68401       37.08418
N         79.25805       -7.68970       38.52494
C         80.20646       -6.75113       37.96694
H         81.13468       -7.28552       37.66928
H         79.76818       -6.24538       37.08148
H         80.47130       -5.98447       38.72593
H         78.95700       -7.55695       39.50253
Ca        72.72085       -4.52348       39.55451
O         75.06449       -2.91256       38.30844
H         74.93367       -2.58788       39.23485
H         76.02055       -3.16645       38.26748
O         72.93066       -5.46532       36.33483
H         72.99671       -4.67151       35.74726
H         73.26056       -6.21387       35.77697
O         72.27615       -6.54360       41.80730
H         71.84491       -7.26632       41.28562
H         71.54304       -6.15549       42.34805
O         71.08999       -2.79877       37.64816
H         70.16924       -2.51138       37.87154
H         71.60286       -1.95554       37.56913
O         70.14460       -5.85882       38.31320
H         69.52361       -5.35764       38.89958
H         69.80555       -6.78887       38.32850
O         75.45966       -5.35640       41.08305
H         75.34644       -6.33383       40.97673
H         75.18417       -5.17844       42.01705

Ca 1.0



