%chk=apoCaM-CA-Ng.loop2.water5.frame212.chk
%nprocshared=20
%mem=10GB
%nosave
#b3lyp/svp scf=(tight,noincore,xqc) Test 
#IOP(5/87=12) Density=Current Pop=(MK,readradii) iop(6/33=2) iop(6/42=6)

apoCaM-CA-Ng.loop2.water5.frame212 

   -2  1 
C         10.13141       28.39925       82.63117
C          9.35859       27.13053       82.41646
O          9.54873       26.49256       81.39103
H         11.21893       28.17981       82.62490
H          9.89841       29.11592       81.81530
H          9.87053       28.87575       83.59978
N          8.44292       26.71719       83.33608
C          7.61821       25.52758       83.17741
C          6.18866       25.99284       83.00685
O          5.33767       25.70148       83.83852
C          7.82944       24.59615       84.39493
C          7.07759       23.28829       84.31757
O          6.37659       23.01093       83.35632
O          7.18768       22.40579       85.32827
H          8.28799       27.29576       84.17708
H          7.89982       24.96061       82.26260
H          7.52579       25.12820       85.32316
H          8.91097       24.35364       84.47313
N          5.87080       26.76389       81.92888
C          4.54925       27.32937       81.71251
C          4.62318       28.83863       81.70899
O          5.71530       29.39501       81.69034
C          3.97886       26.82105       80.38770
H          6.61003       26.98262       81.24117
H          3.86335       27.02972       82.53480
H          2.96331       27.23396       80.21190
H          4.63816       27.12256       79.54437
H          3.91149       25.71296       80.40742
N          3.47889       29.56941       81.78392
C          3.45921       31.02420       81.83551
C          2.51483       31.56470       80.76770
O          1.87208       30.77762       80.08222
C          3.03283       31.42802       83.26524
C          3.22860       32.88493       83.56399
O          2.28333       33.58129       83.89674
O          4.46062       33.42337       83.48780
H          2.57998       29.06723       81.87177
H          4.47973       31.42676       81.64846
H          3.66995       30.87860       83.99223
H          1.97647       31.12475       83.43867
N          2.36983       32.90312       80.57508
C          1.41600       33.48294       79.64736
C          2.06749       34.36397       78.61032
O          1.32868       35.04731       77.91602
H          2.93457       33.56044       81.13106
H          0.72457       34.11383       80.24680
H          0.80098       32.71676       79.12713
N          3.42307       34.40827       78.42673
C          4.05315       35.32644       77.48789
C          4.67434       34.57575       76.32381
O          5.59116       33.79026       76.51248
C          5.07448       36.20632       78.23387
C          5.71476       37.21860       77.31388
N          5.47321       38.54011       77.46652
O          6.45044       36.84156       76.41393
H          4.03669       33.78189       78.96840
H          3.29206       36.02279       77.07373
H          5.86429       35.58638       78.70937
H          4.52865       36.73425       79.04653
H          4.85328       38.88435       78.21305
H          5.89069       39.22259       76.81776
N          4.20389       34.80807       75.06678
C          4.75976       34.24323       73.85246
C          6.09715       34.86069       73.51297
O          6.20316       36.07939       73.52309
H          3.39406       35.43598       74.95011
H          4.08292       34.52460       73.01694
H          4.78688       33.13285       73.89817
N          7.13727       34.08423       73.10023
C          8.39821       34.64910       72.62059
C          9.29301       35.02677       73.78518
O          9.74160       36.16277       73.84736
C          9.10179       33.72785       71.58197
C          9.60232       32.37066       72.09495
O          8.27055       33.54357       70.46169
H          6.97920       33.06924       73.02282
H          8.18048       35.56889       72.02877
H         10.00283       34.27376       71.22352
H          7.51545       32.95857       70.73108
H         10.09322       31.82520       71.26117
H         10.36067       32.50582       72.88538
H          8.77254       31.74641       72.48201
N          9.54976       34.12447       74.77256
C         10.36531       34.40843       75.95207
C          9.47123       34.49756       77.17100
O          8.27868       34.25108       77.05887
C         11.50000       33.34743       76.13011
C         10.94110       31.89496       76.16393
C         12.56573       33.53242       75.03702
C         11.98467       30.82682       76.48994
H          9.07501       33.21256       74.71880
H         10.83096       35.41547       75.86846
H         12.00833       33.54666       77.09848
H         10.49224       31.62499       75.18606
H         10.15078       31.82999       76.94235
H         13.42824       32.85521       75.19833
H         12.14810       33.35004       74.02836
H         12.96323       34.56925       75.07205
H         12.44402       31.02430       77.48041
H         11.48883       29.83262       76.51968
H         12.77382       30.77914       75.71292
N          9.97916       34.90633       78.36935
C          9.14976       35.10182       79.54912
C          9.22842       36.56621       79.96016
O          9.51260       36.86198       81.10982
C          9.62755       34.12330       80.64541
C          8.76548       34.07936       81.87783
O          7.75164       34.75370       81.97260
O          9.11563       33.26299       82.88895
H         10.98520       35.12340       78.44366
H          8.08905       34.87188       79.31538
H         10.66898       34.38628       80.93608
H          9.63761       33.09528       80.22308
N          9.02473       37.54719       79.03311
C          9.14015       38.97451       79.32951
C         10.52358       39.29061       79.89434
O         11.49929       38.94397       79.24124
C          8.95352       39.80163       78.03414
C          8.95682       41.28655       78.31399
C          7.89474       41.87588       79.02201
C         10.02245       42.09331       77.87910
C          7.90417       43.24697       79.29662
C         10.03131       43.46273       78.16277
C          8.97353       44.03899       78.87099
H          8.81023       37.26169       78.06490
H          8.33500       39.24775       80.04135
H          8.00419       39.54455       77.53033
H          9.77314       39.53657       77.32917
H          7.06089       41.27374       79.36089
H         10.85330       41.66171       77.33530
H          7.08402       43.69488       79.84276
H         10.86022       44.07723       77.83597
H          8.98254       45.09904       79.08983
N         10.71077       39.97670       81.06594
C         12.02643       40.35881       81.55325
C         12.72434       39.22421       82.29099
O         13.90779       39.35417       82.57042
C         11.71083       41.52861       82.49017
C         10.39695       41.08252       83.10788
C          9.65459       40.52741       81.89359
H         12.67495       40.71869       80.72312
H         12.51776       41.79600       83.20532
H         11.48372       42.42366       81.86592
H         10.62367       40.24160       83.80062
H          9.83646       41.85744       83.67198
H          8.91023       39.77057       82.22233
H          9.15823       41.34272       81.32992
N         12.04666       38.11113       82.69288
C         12.66797       37.02082       83.43674
C         13.58805       36.17695       82.56308
O         14.23743       35.29156       83.10401
C         11.57993       36.11049       84.04783
C         10.71528       36.85504       85.08107
C          9.60504       35.97114       85.56120
O          8.68960       35.52927       84.67898
O          9.52114       35.65830       86.73782
H         11.03580       38.06739       82.52382
H         13.26211       37.45051       84.27439
H         12.05247       35.24582       84.56489
H         10.94445       35.71666       83.22443
H         10.25070       37.76070       84.63996
H         11.35655       37.17170       85.93328
N         13.69040       36.35882       81.21470
C         14.55312       35.53199       80.39874
H         15.60771       35.64051       80.73019
H         14.24605       34.46725       80.48127
H         14.47945       35.84006       79.33423
H         13.13832       37.08375       80.73636
Ca         7.02022       34.12245       85.24361
O          5.53729       35.58061       87.41718
H          5.06322       34.72506       87.26244
H          5.38121       36.10272       86.59029
O          7.40617       31.03605       83.71623
H          7.86408       30.59276       84.47362
H          6.45009       30.81218       83.83828
O          5.50319       36.40403       83.60960
H          4.80590       36.02645       83.01699
H          5.16073       37.30005       83.85382
O          5.70388       31.77090       86.60970
H          4.88746       32.08174       87.07520
H          5.40088       31.00124       86.06632
O          9.17419       32.27764       86.30488
H          9.30235       32.85330       87.10004
H         10.08973       32.01289       86.03743

Ca 1.0



