%chk=apoCaM-CA-Ng.loop1.water4.frame687.chk
%nprocshared=20
%mem=10GB
%nosave
#b3lyp/svp scf=(tight,noincore,xqc) Test 
#IOP(5/87=12) Density=Current Pop=(MK,readradii) iop(6/33=2) iop(6/42=6)

apoCaM-CA-Ng.loop1.water4.frame687 

   0  1 
C         79.10830       46.64757       63.41192
C         78.22505       47.53784       62.59037
O         78.60162       47.87304       61.47671
H         80.08017       47.15387       63.58739
H         78.64825       46.41299       64.39520
H         79.28282       45.69656       62.86719
N         77.02981       47.96576       63.08172
C         76.12134       48.83406       62.33907
C         75.93949       50.16145       63.06049
O         76.33524       50.28835       64.21210
C         74.76858       48.10422       62.12998
C         74.18181       47.65192       63.44572
O         73.94588       48.55477       64.41641
O         74.00017       46.46434       63.66411
H         76.75320       47.66637       64.03012
H         76.54583       49.07573       61.34154
H         74.93935       47.21131       61.48783
H         74.04811       48.76060       61.59858
N         75.31278       51.19596       62.42943
C         74.96772       52.44710       63.09899
C         73.55209       52.37328       63.65975
O         73.13390       53.31098       64.32418
C         75.05754       53.62890       62.11115
C         76.45856       53.80479       61.51109
C         76.46412       54.94338       60.48187
C         77.84922       55.10851       59.84427
N         77.83724       56.16816       58.83594
H         74.97148       51.04756       61.46667
H         75.66349       52.62876       63.94902
H         74.77322       54.57065       62.63208
H         74.32907       53.45476       61.28728
H         76.76446       52.86624       61.00064
H         77.18506       54.02493       62.32368
H         76.16719       55.89567       60.97423
H         75.72680       54.71198       59.68140
H         78.15110       54.15213       59.36171
H         78.59463       55.35619       60.63220
H         77.57372       57.08056       59.27393
H         78.79205       56.25476       58.41878
H         77.15802       55.93284       58.07575
N         72.75342       51.29063       63.42672
C         71.39111       51.15346       63.92841
C         71.39828       51.11341       65.45325
O         72.35029       50.58463       66.00841
C         70.76722       49.84408       63.37714
C         70.69997       49.78534       61.86638
O         71.08555       50.71483       61.17305
O         70.21134       48.68122       61.27093
H         73.11476       50.52159       62.85090
H         70.78507       52.00283       63.55520
H         69.73519       49.72496       63.76482
H         71.36894       48.97708       63.72683
N         70.37091       51.57173       66.22917
C         69.13557       52.15018       65.72935
C         69.29747       53.53313       65.14261
O         70.38148       54.10002       65.16526
H         70.44363       51.43690       67.24977
H         68.41446       52.24647       66.56920
H         68.68916       51.46274       64.98103
N         68.21616       54.12118       64.55914
C         68.27266       55.41197       63.88020
C         68.36930       56.58626       64.84351
O         68.24850       56.41256       66.04862
C         67.05537       55.56758       62.93644
C         65.72816       55.52661       63.65084
O         65.41141       56.46632       64.56182
O         64.92372       54.64501       63.39320
H         67.34336       53.57247       64.51850
H         69.17693       55.41626       63.23159
H         67.09294       54.73748       62.19640
H         67.12408       56.51847       62.36808
N         68.58684       57.83477       64.34048
C         68.65214       59.05022       65.13252
C         69.72584       58.98780       66.18344
O         69.43592       59.26766       67.33805
H         68.71789       57.93845       63.32288
H         67.66606       59.25455       65.60456
H         68.88496       59.89812       64.45165
N         70.99762       58.62616       65.85384
C         72.08629       58.58635       66.82888
C         71.78755       57.65652       67.99782
O         70.80249       56.92994       67.97254
C         73.42712       58.18080       66.14922
C         73.41684       56.73803       65.61687
O         73.71133       59.05220       65.08572
H         71.19187       58.39503       64.86791
H         72.19753       59.61473       67.23909
H         74.25719       58.23158       66.89106
H         74.04153       59.89790       65.48706
H         72.62914       56.59197       64.84926
H         74.39918       56.50114       65.15588
H         73.24716       56.01368       66.44171
N         72.62943       57.63131       69.06837
C         72.43486       56.74744       70.21228
C         71.40601       57.34076       71.18495
O         70.96653       56.62662       72.07298
C         73.82199       56.41504       70.85489
C         74.76500       55.79999       69.77506
C         73.69531       55.45198       72.05331
C         76.22212       55.67985       70.22297
H         73.44815       58.25951       69.06331
H         72.01911       55.78436       69.83595
H         74.26593       57.37023       71.21321
H         74.79450       56.44514       68.87338
H         74.38281       54.80499       69.45672
H         74.68230       55.23574       72.50508
H         73.09455       55.89635       72.86897
H         73.23053       54.49376       71.73487
H         76.34141       54.98909       71.07911
H         76.83059       55.28371       69.38232
H         76.61548       56.68257       70.49621
N         70.93682       58.62087       71.04984
C         69.87538       59.18546       71.88017
C         70.35860       60.43399       72.58974
O         70.81560       61.35451       71.92738
C         68.66151       59.54798       70.99019
C         68.08010       58.31857       70.28361
O         67.65709       60.18198       71.74529
H         71.30986       59.22613       70.30525
H         69.52583       58.45245       72.63959
H         68.99558       60.26488       70.20740
H         67.37381       59.55456       72.46103
H         67.22703       58.62494       69.64294
H         68.84449       57.83741       69.64045
H         67.72362       57.57688       71.02962
N         70.24281       60.54222       73.94670
C         70.59387       61.75041       74.68704
C         70.54257       61.47138       76.18677
O         71.57394       61.60343       76.83170
C         69.68236       62.95095       74.27162
C         70.06513       64.25355       74.98414
O         68.33144       62.65471       74.51612
H         69.88218       59.73132       74.47210
H         71.64631       62.01701       74.43724
H         69.81800       63.13244       73.18333
H         67.78889       63.26944       73.95542
H         69.92839       64.16470       76.08183
H         71.12178       64.51468       74.76406
H         69.42085       65.08242       74.61761
N         69.38342       61.10261       76.81152
C         69.28238       60.89783       78.25336
C         68.64574       59.55277       78.56227
O         67.63578       59.22180       77.95469
C         68.47870       62.06223       78.85938
C         68.63975       62.12176       80.38818
C         68.06075       63.42165       80.95894
C         68.41446       63.57231       82.44531
N         67.94146       64.85321       82.96859
H         68.51876       61.02081       76.25784
H         70.29141       60.94544       78.71794
H         67.40890       62.02625       78.55570
H         68.91948       63.00048       78.45458
H         69.72897       62.11678       80.61586
H         68.17408       61.23623       80.87311
H         66.95862       63.44360       80.81543
H         68.50885       64.28213       80.41462
H         69.52108       63.52732       82.56444
H         67.96583       62.73861       83.02877
H         66.90034       64.91062       82.89471
H         68.21960       64.93610       83.97310
H         68.37779       65.64119       82.43568
N         69.14814       58.74685       79.54300
C         68.55551       57.45306       79.87092
C         68.78048       56.44960       78.74336
O         67.78654       55.97754       78.21017
C         69.03573       56.93050       81.25035
C         68.40460       55.57282       81.60937
C         68.77770       55.14527       82.99991
O         69.94867       54.97884       83.30250
O         67.81601       54.92873       83.91778
H         69.93894       59.09355       80.10709
H         67.45742       57.60152       79.99913
H         68.73276       57.67953       82.01587
H         70.13550       56.82917       81.30485
H         68.75307       54.79460       80.89613
H         67.29755       55.64409       81.53995
N         70.00677       56.03111       78.30611
C         71.29571       56.49205       78.78186
H         71.87564       56.89396       77.92599
H         71.23491       57.29505       79.52958
H         71.85209       55.63782       79.22195
H         70.03258       55.31862       77.56007
Ca        73.61376       47.98111       66.57318
O         75.67301       45.70818       66.50855
H         76.46410       46.17523       66.87785
H         75.93377       45.47165       65.58325
O         75.08880       51.01378       67.70814
H         75.87657       50.51249       67.37872
H         75.15491       51.89886       67.26912
O         71.64575       45.86331       66.70584
H         72.22718       45.79121       65.90721
H         70.96372       46.53597       66.45476
O         72.48980       49.43540       69.04981
H         72.18008       49.15067       69.94593
H         72.65425       50.40758       69.13989

Ca 1.0



