%chk=apoCaM-CA-Ng.loop2.water4.frame1336.chk
%nprocshared=20
%mem=10GB
%nosave
#b3lyp/svp scf=(tight,noincore,xqc) Test 
#IOP(5/87=12) Density=Current Pop=(MK,readradii) iop(6/33=2) iop(6/42=6)

apoCaM-CA-Ng.loop2.water4.frame1336 

   -2  1 
C         68.54137       76.40903       27.75659
C         67.04168       76.28862       27.91258
O         66.36059       76.97769       27.16736
H         69.16388       75.79642       28.42524
H         68.81693       76.13312       26.71742
H         68.83533       77.46575       27.92895
N         66.40016       75.48562       28.81771
C         67.02725       74.59840       29.79702
C         66.74884       75.03876       31.22966
O         67.29844       74.42612       32.13488
C         66.59795       73.13297       29.55793
C         65.14464       72.86111       29.84006
O         64.80211       71.97012       30.79025
O         64.27143       73.41949       29.19927
H         65.37014       75.52541       28.80881
H         68.12009       74.60985       29.69179
H         67.20353       72.47509       30.21846
H         66.82320       72.85219       28.50605
N         65.92514       76.09042       31.51788
C         65.69046       76.58728       32.86574
C         64.24674       76.38925       33.30453
O         63.91399       76.85112       34.38783
C         66.08075       78.06931       32.90786
H         65.43975       76.58964       30.75966
H         66.32520       76.05659       33.60868
H         65.95195       78.48054       33.93174
H         67.14886       78.18415       32.62291
H         65.45782       78.65974       32.20204
N         63.34908       75.66763       32.56431
C         61.98442       75.41035       33.00274
C         61.82451       73.96623       33.57851
O         62.43430       72.88993       32.91357
C         60.91053       75.95649       31.99567
C         61.11428       75.96269       30.47840
O         61.08581       77.03287       29.89116
O         61.24276       74.84837       29.73777
H         63.64493       75.22846       31.68117
H         61.76367       75.98613       33.92906
H         60.81450       77.03758       32.24675
H         59.92435       75.50902       32.23880
N         60.45118       73.68245       34.03776
C         60.23969       72.28999       34.46618
C         59.61144       71.50740       33.34223
O         60.20180       71.43368       32.27753
H         60.28917       74.30458       34.86359
H         59.55843       72.27063       35.34497
H         61.19077       71.81122       34.79139
N         58.40383       70.89302       33.49954
C         57.76539       70.13587       32.42631
C         56.42975       70.75581       32.05575
O         55.95572       71.64401       32.75193
C         57.58429       68.66523       32.86149
C         58.88634       67.98778       33.23067
N         58.90739       67.00911       34.16592
O         59.92499       68.30430       32.67036
H         57.91990       70.95717       34.40858
H         58.39261       70.15797       31.50835
H         57.11109       68.07572       32.04813
H         56.90020       68.62898       33.73814
H         58.04227       66.71114       34.63968
H         59.79222       66.54125       34.41417
N         55.76989       70.33214       30.93943
C         54.46591       70.83691       30.53286
C         54.44607       72.32694       30.21408
O         55.48327       72.96926       30.29836
H         56.19848       69.59422       30.35992
H         53.74636       70.62781       31.35251
H         54.14303       70.28527       29.62351
N         53.29614       72.98100       29.85619
C         51.98870       72.33716       29.71644
C         51.37008       72.51551       28.33034
O         50.39117       71.82994       28.06933
C         51.00200       72.88182       30.77767
C         51.49390       72.64586       32.20751
O         50.80470       74.25905       30.57790
H         53.35295       74.00117       29.71277
H         52.08077       71.24457       29.87141
H         50.03651       72.33382       30.65390
H         49.87318       74.46501       30.85322
H         52.44866       73.18281       32.39068
H         50.73665       73.02409       32.92712
H         51.64174       71.56138       32.39133
N         51.81818       73.43560       27.42001
C         51.15887       73.68067       26.13464
C         52.17903       73.52527       25.00881
O         53.19530       74.20400       25.07214
C         50.55674       75.12012       26.10280
C         49.59490       75.40921       27.28765
C         49.85567       75.40278       24.75701
C         48.33306       74.54084       27.34466
H         52.61987       74.03666       27.65440
H         50.31879       72.98073       26.00776
H         51.39273       75.84885       26.20080
H         49.27340       76.47234       27.23250
H         50.14839       75.28850       28.24102
H         50.56846       75.31670       23.91065
H         49.02763       74.68615       24.57650
H         49.44757       76.43547       24.74393
H         48.58140       73.46858       27.44822
H         47.72941       74.83479       28.22911
H         47.70485       74.68304       26.44262
N         52.01998       72.70429       23.92579
C         50.86659       71.85112       23.65310
C         50.62044       71.73985       22.15499
O         51.53804       71.38980       21.42519
C         51.05493       70.45904       24.28880
C         52.22631       69.69052       23.73571
O         52.04386       68.62554       23.16731
O         53.47979       70.16269       23.87267
H         52.78993       72.69133       23.23772
H         49.94805       72.28375       24.09094
H         50.12319       69.87477       24.11627
H         51.18642       70.56821       25.38642
N         49.37662       71.97094       21.63834
C         49.06016       71.81823       20.22034
C         48.35910       73.05639       19.66927
O         47.60836       73.67028       20.41457
C         48.16639       70.58244       19.98081
C         46.81571       70.66739       20.64875
C         45.70029       71.13046       19.92868
C         46.65704       70.28165       21.98978
C         44.44944       71.21565       20.54532
C         45.40162       70.35964       22.60013
C         44.29949       70.82876       21.87952
H         48.61102       72.21274       22.28461
H         49.98141       71.61080       19.65705
H         48.68377       69.65267       20.30359
H         48.01672       70.47421       18.88457
H         45.80250       71.43689       18.89442
H         47.50299       69.91506       22.55828
H         43.59677       71.58178       19.98818
H         45.28320       70.05644       23.63208
H         43.32920       70.89195       22.35435
N         48.42518       73.41667       18.34555
C         49.27690       72.82564       17.31970
C         50.73899       72.92634       17.69213
O         51.44946       71.93493       17.62304
C         48.99327       73.67716       16.07285
C         47.55426       74.07865       16.29565
C         47.57199       74.44004       17.77715
H         48.96406       71.77329       17.13907
H         49.57975       74.62356       16.10454
H         49.21079       73.16461       15.11121
H         47.17449       74.87978       15.62741
H         46.92317       73.16895       16.16262
H         48.03244       75.43580       17.96176
H         46.53076       74.40870       18.16522
N         51.22159       74.10045       18.18833
C         52.57577       74.25924       18.69532
C         53.56172       74.19886       17.53933
O         53.46737       75.03924       16.65582
C         52.71266       75.60760       19.44180
C         51.81088       75.66846       20.69178
C         51.91934       77.00326       21.37082
O         53.10575       77.43007       21.84335
O         50.92939       77.70553       21.50450
H         50.57026       74.89564       18.26399
H         52.76965       73.46323       19.44372
H         52.45124       76.44087       18.75148
H         53.76853       75.73858       19.76671
H         52.10937       74.87359       21.40909
H         50.74837       75.49846       20.41590
N         54.54003       73.25386       17.44156
C         54.74982       72.20060       18.41130
H         54.97995       72.63432       19.40691
H         53.85079       71.55426       18.47859
H         55.60545       71.56610       18.09728
H         55.17200       73.28357       16.62631
Ca        61.89487       73.07063       30.78919
O         62.27651       72.89076       27.19770
H         62.87834       72.33501       26.64156
H         62.55945       73.82170       27.01375
O         62.91405       70.01936       28.46172
H         63.71286       69.44814       28.58840
H         62.62337       69.83967       27.53272
O         59.84006       71.48591       28.85905
H         59.25374       70.68863       28.88842
H         59.29150       72.21240       29.24877
O         62.25160       69.67679       31.27674
H         62.57703       68.74359       31.22744
H         62.25063       69.88629       32.24403

Ca 1.0



