%chk=apoCaM-CA-Ng.loop2.water5.frame224.chk
%nprocshared=20
%mem=10GB
%nosave
#b3lyp/svp scf=(tight,noincore,xqc) Test 
#IOP(5/87=12) Density=Current Pop=(MK,readradii) iop(6/33=2) iop(6/42=6)

apoCaM-CA-Ng.loop2.water5.frame224 

   -2  1 
C         12.91078       26.84261       83.41921
C         12.38267       25.43904       83.30594
O         13.11702       24.54509       82.91088
H         13.97674       26.89747       83.11200
H         12.31798       27.51744       82.76500
H         12.82289       27.19444       84.46918
N         11.09448       25.17786       83.65343
C         10.47904       23.85532       83.57117
C         10.34828       23.41603       82.11971
O          9.87300       24.19925       81.30796
C          9.08057       23.90336       84.22836
C          8.40908       22.55849       84.37513
O          7.19139       22.49274       84.94390
O          8.95404       21.52675       84.01617
H         10.53047       25.96480       84.01304
H         11.08928       23.13368       84.15962
H          8.41962       24.58025       83.64451
H          9.18686       24.31923       85.25372
N         10.67850       22.14790       81.73448
C         10.51292       21.68229       80.35755
C         11.58234       22.28306       79.46841
O         12.44256       22.98475       79.98089
C         10.56124       20.15143       80.30471
H         11.00171       21.48155       82.45243
H          9.50566       21.98534       79.99287
H          9.75873       19.73626       80.95235
H         10.37859       19.78634       79.27207
H         11.54299       19.77199       80.65648
N         11.60468       22.04638       78.12260
C         12.60077       22.65530       77.24821
C         13.51629       21.58993       76.67328
O         13.73379       21.54406       75.46933
C         11.90876       23.50653       76.16048
C         11.02457       24.57862       76.74386
O         10.05923       24.28132       77.42975
O         11.27201       25.87444       76.48213
H         10.89243       21.43146       77.70048
H         13.26227       23.33130       77.82836
H         11.28671       22.85450       75.50958
H         12.68768       23.98777       75.52974
N         14.11170       20.69567       77.51176
C         15.09024       19.71988       77.07194
C         16.39337       20.41230       76.77311
O         16.88700       20.31981       75.65841
H         13.86818       20.70694       78.51345
H         14.70070       19.14005       76.20532
H         15.29043       19.00507       77.89856
N         17.00024       21.13944       77.75655
C         18.25122       21.86567       77.58452
C         19.26845       21.37393       78.60178
O         19.05418       21.52289       79.79728
C         17.98748       23.37136       77.75148
C         17.05359       23.86663       76.67343
N         15.82224       24.33344       76.97994
O         17.41112       23.83170       75.50544
H         16.53637       21.19932       78.67684
H         18.65993       21.70063       76.56316
H         18.93813       23.94324       77.68519
H         17.54679       23.55054       78.75763
H         15.48900       24.34729       77.95219
H         15.18759       24.65881       76.23725
N         20.39060       20.72956       78.17971
C         21.38869       20.16234       79.07006
C         22.26881       21.20620       79.71967
O         22.87079       21.99271       79.00287
H         20.51720       20.56711       77.16918
H         22.07325       19.53786       78.45618
H         20.90681       19.48735       79.81054
N         22.47943       21.19994       81.06911
C         23.48031       22.05508       81.71029
C         23.13858       23.52489       81.55728
O         23.95652       24.26381       81.02390
C         23.75928       21.65115       83.19104
C         22.60665       21.83996       84.18952
O         24.23892       20.32897       83.24525
H         21.97669       20.50213       81.63547
H         24.45362       21.87827       81.19671
H         24.58593       22.30002       83.55709
H         23.46796       19.71148       83.15219
H         21.71220       21.25461       83.89396
H         22.93468       21.50542       85.19658
H         22.34047       22.90632       84.28658
N         21.93976       24.01405       81.97568
C         21.54608       25.41289       81.84486
C         20.37354       25.52925       80.89664
O         19.88534       24.51922       80.40155
C         21.23516       26.04915       83.23801
C         20.10658       25.29323       83.99049
C         22.52882       26.15474       84.06371
C         19.65007       25.99042       85.27225
H         21.25281       23.35289       82.36705
H         22.36183       26.00975       81.37831
H         20.89174       27.09233       83.07464
H         20.42875       24.26577       84.25223
H         19.21689       25.22013       83.32889
H         23.28806       26.73661       83.49764
H         22.35661       26.69813       85.01405
H         22.94852       25.15497       84.28919
H         19.28204       27.01280       85.04322
H         18.82047       25.40945       85.72808
H         20.46771       26.04782       86.01813
N         19.88265       26.75689       80.58213
C         18.78340       26.97725       79.66138
C         19.25254       27.85704       78.49344
O         18.42883       28.32929       77.72546
C         17.62474       27.58738       80.48230
C         16.28237       27.29450       79.87988
O         15.91384       26.01468       79.69974
O         15.48932       28.18448       79.63587
H         20.30688       27.59389       81.01361
H         18.42964       26.00695       79.25018
H         17.79559       28.66987       80.67168
H         17.58771       27.07456       81.46907
N         20.59310       28.07108       78.28512
C         21.16147       28.92067       77.24234
C         20.94505       30.38647       77.60964
O         21.29535       30.74756       78.72499
C         22.68887       28.67506       77.16779
C         23.32129       29.39129       76.00161
C         23.10959       28.92726       74.69143
C         24.13241       30.51833       76.20971
C         23.70567       29.57930       73.60814
C         24.71436       31.17641       75.12212
C         24.50460       30.70528       73.82304
H         21.26989       27.57973       78.88415
H         20.73093       28.63192       76.26071
H         22.91212       27.59034       77.06141
H         23.14856       29.00300       78.12693
H         22.49536       28.05335       74.51136
H         24.30267       30.89499       77.21041
H         23.54895       29.21105       72.60236
H         25.32976       32.05099       75.28697
H         24.96209       31.21183       72.98324
N         20.41675       31.30987       76.74917
C         20.24853       32.71789       77.08955
C         18.98829       32.96203       77.90893
O         18.63790       34.11865       78.10181
C         20.16222       33.38158       75.71158
C         19.39624       32.34992       74.91385
C         20.05832       31.05011       75.36963
H         21.12909       33.14817       77.61701
H         19.74176       34.41081       75.70762
H         21.19021       33.42799       75.28380
H         18.34844       32.36895       75.28362
H         19.38349       32.50428       73.81491
H         19.34382       30.20869       75.24929
H         20.99273       30.85656       74.80030
N         18.26547       31.93464       78.43665
C         17.01472       32.10787       79.15343
C         17.19191       31.84889       80.64360
O         16.20897       31.94916       81.36439
C         15.97568       31.14569       78.54841
C         15.75192       31.37777       77.04835
C         14.77848       30.38201       76.49249
O         13.51637       30.34140       76.95595
O         15.12350       29.61310       75.60947
H         18.59583       30.96644       78.33782
H         16.63873       33.14979       79.05610
H         15.00841       31.24376       79.08771
H         16.36314       30.11868       78.67458
H         16.71497       31.26359       76.50877
H         15.36215       32.40226       76.87577
N         18.41197       31.55425       81.18740
C         18.62824       31.36300       82.60732
H         19.36038       32.11747       82.96649
H         17.69692       31.47553       83.20030
H         19.04233       30.34893       82.78482
H         19.24605       31.47752       80.58976
Ca        12.83382       27.77419       78.18076
O         10.10457       27.63100       79.74630
H         10.18221       26.64566       79.79788
H         10.23515       27.93990       80.67789
O         13.70040       27.00014       75.36486
H         14.60689       26.94597       75.75892
H         13.65232       26.23373       74.74056
O         13.13364       25.80346       80.26671
H         12.20219       25.52407       80.44528
H         13.36890       25.35057       79.41875
O         12.61025       30.11919       80.12723
H         12.89506       30.02319       81.07052
H         11.62788       30.23387       80.17291
O         10.48821       29.32263       76.95180
H          9.94115       28.82451       76.29417
H         10.88805       30.06317       76.43061

Ca 1.0



