%chk=apoCaM-CA-Ng.loop1.water6.frame596.chk
%nprocshared=20
%mem=10GB
%nosave
#b3lyp/svp scf=(tight,noincore,xqc) Test 
#IOP(5/87=12) Density=Current Pop=(MK,readradii) iop(6/33=2) iop(6/42=6)

apoCaM-CA-Ng.loop1.water6.frame596 

   0  1 
C         45.56893      102.27993      111.90824
C         44.14078      102.40840      112.35328
O         43.26800      101.87897      111.67991
H         46.26291      102.78597      112.61164
H         45.84414      101.20536      111.85469
H         45.68885      102.73485      110.90278
N         43.82273      103.09257      113.49115
C         42.44875      103.21585      113.98495
C         41.59214      103.98131      112.95991
O         42.15631      104.57703      112.05143
C         42.48996      103.87384      115.39203
C         41.26680      103.75280      116.26357
O         40.29315      103.10438      115.92492
O         41.28844      104.30591      117.49107
H         44.59372      103.50720      114.03823
H         42.06396      102.17668      114.09076
H         42.77175      104.94247      115.28006
H         43.29105      103.37197      115.98027
N         40.22739      103.91162      112.97107
C         39.37612      104.42034      111.88889
C         38.36386      105.43150      112.42098
O         38.34925      105.66286      113.62175
C         38.67243      103.19958      111.24432
C         39.70635      102.18028      110.71302
C         39.13232      100.82322      110.27623
C         38.47921      100.06507      111.44933
N         38.27168       98.65447      111.12730
H         39.75854      103.37344      113.70754
H         39.98529      104.93146      111.11648
H         38.01557      103.50818      110.40523
H         38.04707      102.72859      112.03160
H         40.44925      101.94214      111.50155
H         40.25563      102.64109      109.86335
H         39.99704      100.22500      109.91427
H         38.41353      100.93505      109.43646
H         37.50849      100.53945      111.70179
H         39.13453      100.11311      112.34652
H         37.73510       98.19811      111.90018
H         37.74617       98.55024      110.23880
H         39.19543       98.17533      111.02632
N         37.47793      106.07044      111.58731
C         36.47235      107.02054      112.07911
C         35.32515      107.38335      111.05819
O         35.61932      108.29936      110.04247
C         37.08775      108.25193      112.82496
C         38.31263      109.00401      112.30984
O         38.80133      109.84944      113.04228
O         38.93165      108.75696      111.13708
H         37.48905      105.83414      110.58498
H         35.90360      106.48947      112.86912
H         37.42883      107.87088      113.80914
H         36.27257      108.97167      113.05469
N         34.59352      106.24591      110.48047
C         33.87673      105.42522      111.47063
C         34.53349      104.07741      111.58521
O         35.53462      103.83833      110.92620
H         33.86831      106.65426      109.84341
H         32.83339      105.24681      111.12399
H         33.79789      105.92307      112.46260
N         33.99380      103.12239      112.38893
C         34.56564      101.78850      112.52692
C         33.64720      100.70379      111.97670
O         34.00130       99.54545      112.12416
C         34.97585      101.54277      113.99367
C         33.82895      101.59873      114.96403
O         32.90571      100.80500      114.87965
O         33.83073      102.51439      115.95145
H         33.13703      103.34768      112.91887
H         35.50088      101.70238      111.93548
H         35.72558      102.31484      114.27573
H         35.47254      100.55166      114.08009
N         32.47508      100.98948      111.32846
C         31.59807       99.99233      110.72104
C         32.11936       99.47836      109.38403
O         31.48984       99.74540      108.36968
H         32.15910      101.96772      111.26555
H         30.62699      100.49345      110.50726
H         31.38343       99.16678      111.43245
N         33.25423       98.73235      109.30198
C         33.83840       98.22816      108.06618
C         35.18305       98.89169      107.87959
O         35.95914       98.91741      108.81817
C         34.01855       96.69630      108.15284
C         32.67209       95.97885      108.26447
O         34.68044       96.24107      106.99943
H         33.75923       98.49537      110.15880
H         33.20012       98.45171      107.18215
H         34.63327       96.46796      109.05746
H         35.18145       95.42247      107.25482
H         32.83838       94.88284      108.33142
H         32.12374       96.30705      109.17172
H         32.05128       96.18939      107.36712
N         35.52760       99.44310      106.68574
C         36.80326      100.11182      106.43932
C         36.52026      101.54880      106.04663
O         37.04503      102.45760      106.67396
C         37.61602       99.38197      105.32927
C         37.78056       97.86030      105.58938
C         38.99303      100.05088      105.13374
C         38.51760       97.48227      106.87798
H         34.85362       99.36671      105.91040
H         37.43188      100.11586      107.35646
H         37.06137       99.46805      104.36873
H         38.33104       97.41184      104.73333
H         36.77594       97.38830      105.61249
H         39.56231       99.53963      104.32897
H         38.87919      101.11536      104.84076
H         39.59118      100.01954      106.06905
H         37.98176       97.85393      107.77008
H         38.57091       96.37555      106.95308
H         39.55332       97.87614      106.88422
N         35.65057      101.81476      105.03077
C         35.28462      103.15492      104.59688
C         35.32536      103.24221      103.07908
O         35.58383      102.24635      102.41659
C         33.89108      103.52889      105.16305
C         32.78411      102.54259      104.76952
O         33.97600      103.58550      106.56468
H         35.17699      101.02716      104.56690
H         36.01022      103.90054      104.99144
H         33.62259      104.53731      104.77097
H         33.32987      104.27469      106.87109
H         32.98559      101.53465      105.19060
H         31.81370      102.89275      105.18033
H         32.69400      102.46813      103.66610
N         35.08459      104.43293      102.46414
C         35.10807      104.61216      101.02068
C         36.26898      105.52215      100.67887
O         37.18573      105.06693      100.00760
C         33.72268      105.11371      100.53149
C         33.69176      105.39833       99.02811
O         33.33441      106.27227      101.22659
H         34.90171      105.26198      103.04810
H         35.29544      103.64133      100.50736
H         32.99886      104.28915      100.74450
H         32.36657      106.18759      101.43266
H         32.66664      105.70639       98.72954
H         34.38950      106.22451       98.77306
H         33.97175      104.49158       98.45288
N         36.30756      106.81294      101.11181
C         37.42021      107.70994      100.84935
C         37.88314      108.34044      102.14715
O         37.06883      108.90827      102.86393
C         36.99940      108.77063       99.82142
C         38.19085      109.66692       99.44358
C         37.85476      110.59119       98.27281
C         39.07011      111.45243       97.90337
N         38.78023      112.29783       96.74709
H         35.50671      107.19253      101.63561
H         38.26630      107.15707      100.38339
H         36.15211      109.38433      100.19803
H         36.66273      108.22975       98.90859
H         39.04643      109.02375       99.13816
H         38.49889      110.27088      100.32514
H         36.99824      111.24620       98.54221
H         37.57099      109.96953       97.39491
H         39.93501      110.79402       97.66204
H         39.34922      112.09211       98.77032
H         38.54945      111.70222       95.91859
H         37.97928      112.93568       96.95902
H         39.62482      112.87244       96.52424
N         39.20271      108.32851      102.48022
C         39.71796      108.96104      103.68637
C         39.23372      108.22571      104.93221
O         38.58473      108.86929      105.74339
C         41.25955      109.10101      103.60871
C         41.89844      109.88603      104.76646
C         41.40917      111.30493      104.86011
O         41.53168      112.06442      103.91223
O         40.86483      111.75597      106.00464
H         39.87027      107.90935      101.81472
H         39.32967      110.00514      103.70975
H         41.50731      109.63104      102.66217
H         41.75171      108.11247      103.56422
H         42.99563      109.91843      104.59399
H         41.71809      109.35614      105.72416
N         39.46299      106.90321      105.19654
C         40.16326      105.95539      104.35319
H         41.04603      105.56123      104.89927
H         39.48455      105.10930      104.11757
H         40.50214      106.37290      103.39501
H         39.08965      106.52062      106.07681
Ca        37.73731      108.07564      109.43146
O         39.68840      106.19651      108.48234
H         39.20704      105.33896      108.59732
H         40.36997      106.20830      109.19864
O         36.30157      111.10787      109.87558
H         35.56556      111.70450      110.16196
H         37.10728      111.47132      110.32155
O         40.94099      109.21246      108.51933
H         40.39805      109.70483      107.85428
H         41.87759      109.35849      108.23317
O         36.35003      106.95306      106.91909
H         36.17278      106.12866      107.43774
H         36.30704      106.66850      105.97171
O         38.25648      111.74424      107.72267
H         38.53645      111.25359      106.91120
H         37.60421      112.41095      107.39141
O         35.69841      110.11026      106.79228
H         35.26749      109.43101      106.21546
H         35.87070      110.87403      106.18629

Ca 1.0



