%chk=apoCaM-CA-Ng.loop1.water3.frame311.chk
%nprocshared=20
%mem=10GB
%nosave
#b3lyp/svp scf=(tight,noincore,xqc) Test 
#IOP(5/87=12) Density=Current Pop=(MK,readradii) iop(6/33=2) iop(6/42=6)

apoCaM-CA-Ng.loop1.water3.frame311 

   0  1 
C         41.97168       84.12735       34.58178
C         42.95917       84.84041       35.45601
O         43.35135       84.31267       36.48705
H         41.05705       84.74521       34.46795
H         42.42321       83.96409       33.57885
H         41.69818       83.14154       35.01184
N         43.43540       86.05228       35.06976
C         44.47186       86.76986       35.79978
C         43.96615       87.41343       37.09521
O         44.77583       88.04795       37.74222
C         45.08107       87.88505       34.90508
C         45.72759       87.37896       33.64017
O         45.06807       86.82339       32.77738
O         47.04351       87.58042       33.43425
H         43.09606       86.43487       34.17403
H         45.30186       86.06646       36.03717
H         45.88392       88.39309       35.47151
H         44.30384       88.63722       34.64624
N         42.67937       87.34938       37.54884
C         42.21574       88.19743       38.65501
C         41.89288       87.40843       39.91198
O         41.19060       86.41480       39.78935
C         41.00107       89.03195       38.21333
C         41.34953       89.91567       37.00178
C         40.28757       90.98498       36.69377
C         40.12616       92.07207       37.78266
N         41.35368       92.84478       37.99370
H         41.98535       86.76359       37.06332
H         42.97660       88.94329       38.90594
H         40.72337       89.66807       39.07353
H         40.12725       88.38813       37.97189
H         41.47170       89.25762       36.11393
H         42.31994       90.41774       37.16166
H         39.30931       90.48476       36.52948
H         40.57477       91.49311       35.74784
H         39.79265       91.63091       38.74481
H         39.32605       92.76957       37.45335
H         42.11265       92.24140       38.37064
H         41.66827       93.28359       37.09852
H         41.17099       93.59712       38.69620
N         42.28071       87.78424       41.18128
C         43.03406       88.98308       41.58947
C         42.34170       90.26416       41.13905
O         42.87503       90.96192       40.28966
C         44.52993       88.93434       41.21149
C         45.25198       87.80599       41.87516
O         44.60155       86.93570       42.67008
O         46.44450       87.65329       41.66491
H         41.95806       87.18280       41.95578
H         43.07207       89.02082       42.69912
H         45.01657       89.87699       41.54798
H         44.68115       88.83517       40.12843
N         41.17104       90.69045       41.69514
C         40.59633       90.03547       42.85870
C         39.40470       90.75880       43.45637
O         38.86690       91.66043       42.83141
H         40.75380       91.56261       41.33657
H         41.38268       90.06792       43.63685
H         40.32538       88.98171       42.63776
N         38.96238       90.47713       44.72053
C         39.58538       89.49051       45.60357
C         40.42834       90.18317       46.66121
O         40.38585       91.40084       46.78369
C         38.55843       88.49909       46.19180
C         37.52373       89.13143       47.08428
O         36.72138       89.93495       46.63805
O         37.44933       88.77408       48.38038
H         38.20835       91.06838       45.09929
H         40.29536       88.86139       45.03394
H         39.10875       87.73513       46.78314
H         38.04377       87.96766       45.36254
N         41.30484       89.44941       47.39899
C         42.26263       90.01544       48.33336
C         43.20115       90.98971       47.65422
O         43.42043       92.06904       48.18517
H         41.34238       88.42900       47.25112
H         42.87899       89.18245       48.73564
H         41.74401       90.50017       49.18923
N         43.76503       90.68120       46.45197
C         44.69844       91.55271       45.74714
C         43.97974       92.22458       44.59689
O         43.42294       91.52384       43.76667
C         45.89231       90.72618       45.20830
C         46.63360       89.98262       46.32340
O         46.78656       91.58558       44.54713
H         43.48678       89.80155       45.98941
H         45.09479       92.33889       46.42784
H         45.49462       89.97002       44.48835
H         47.31455       91.02705       43.91820
H         47.04399       90.69962       47.06457
H         45.95396       89.27157       46.83886
H         47.47070       89.39657       45.88705
N         43.98205       93.58500       44.46377
C         43.33068       94.27250       43.35008
C         44.37892       94.82852       42.39495
O         44.34405       95.99496       42.03337
C         42.27464       95.31026       43.84007
C         42.87719       96.37015       44.80153
C         41.08786       94.57118       44.48837
C         41.92761       97.53583       45.08825
H         44.50922       94.14852       45.14675
H         42.77849       93.54234       42.71686
H         41.88434       95.82742       42.93473
H         43.79003       96.80985       44.35032
H         43.16423       95.89633       45.76478
H         40.26990       95.27004       44.75337
H         40.65998       93.83664       43.77255
H         41.40901       94.02789       45.40221
H         40.99970       97.20041       45.59209
H         42.43089       98.26373       45.75920
H         41.66544       98.05450       44.14145
N         45.27753       93.95465       41.86070
C         46.20381       94.22721       40.76020
C         46.65454       92.87146       40.21228
O         47.17437       92.05025       40.95539
C         47.38058       95.18580       41.09148
C         48.30906       94.71500       42.21827
O         46.91432       96.49255       41.33148
H         45.19780       92.97704       42.18144
H         45.62445       94.72750       39.95252
H         48.00676       95.25102       40.17371
H         46.71992       96.59327       42.29876
H         47.75336       94.63813       43.17576
H         48.76658       93.73656       41.97423
H         49.13064       95.45471       42.33883
N         46.32773       92.53865       38.93513
C         46.32397       91.17387       38.40399
C         47.68289       90.46131       38.38869
O         48.68505       91.03469       38.79012
C         45.63107       91.18617       37.01109
C         46.50368       91.83603       35.92088
O         44.37892       91.82203       37.14297
H         45.91139       93.28109       38.35342
H         45.66561       90.57817       39.06692
H         45.42945       90.15853       36.68557
H         44.17330       92.34820       36.32822
H         45.97022       91.79456       34.94689
H         46.72786       92.89409       36.16365
H         47.45442       91.27640       35.80337
N         47.76219       89.18611       37.89344
C         48.97909       88.39622       37.74659
C         48.83539       86.96087       38.31426
O         49.82852       86.24867       38.33218
C         49.26553       88.35303       36.22659
C         50.59966       87.72364       35.80840
C         50.73061       87.73870       34.27932
C         52.05921       87.12076       33.83094
N         52.14997       87.08257       32.37180
H         46.91970       88.77959       37.49253
H         49.81869       88.91098       38.26233
H         49.26641       89.40100       35.85004
H         48.43108       87.81182       35.72834
H         50.65512       86.66845       36.13866
H         51.43418       88.29716       36.26746
H         50.66710       88.78395       33.90339
H         49.89276       87.15254       33.84064
H         52.13931       86.08384       34.22648
H         52.90204       87.72118       34.23992
H         52.08422       88.04966       31.97910
H         53.06832       86.66522       32.09732
H         51.38079       86.49054       31.98120
N         47.64412       86.44706       38.75889
C         47.46451       85.05682       39.20212
C         47.80331       84.07427       38.09468
O         47.23093       84.16060       37.01664
C         46.00043       84.82307       39.65759
C         45.63617       83.36291       40.02114
C         46.51999       82.68236       41.04518
O         47.12189       81.66908       40.72862
O         46.61692       83.11781       42.31759
H         46.81349       87.04853       38.76652
H         48.11680       84.86676       40.08201
H         45.30771       85.13127       38.84169
H         45.79671       85.47884       40.51776
H         45.66659       82.76088       39.08656
H         44.58551       83.34304       40.38328
N         48.68804       83.06436       38.33538
C         49.00616       82.02414       37.37877
H         50.10012       82.01255       37.19574
H         48.70583       81.04016       37.80020
H         48.48146       82.16124       36.41067
H         49.13509       82.99741       39.26208
Ca        45.67381       85.01861       43.00374
O         45.45099       85.92837       46.88663
H         46.21805       86.49578       47.15155
H         45.45644       85.18424       47.53995
O         47.71275       86.42211       44.73411
H         47.75950       87.20502       44.13029
H         48.62798       86.33274       45.10031
O         47.00431       83.42675       45.41563
H         46.47611       82.59519       45.31610
H         47.51793       83.29804       46.25207

Ca 1.0



