%chk=apoCaM-CA-Ng.loop2.water3.frame1322.chk
%nprocshared=20
%mem=10GB
%nosave
#b3lyp/svp scf=(tight,noincore,xqc) Test 
#IOP(5/87=12) Density=Current Pop=(MK,readradii) iop(6/33=2) iop(6/42=6)

apoCaM-CA-Ng.loop2.water3.frame1322 

   -2  1 
C         62.84026       37.55386       97.83153
C         62.81800       39.06063       97.91149
O         62.76112       39.66686       96.85157
H         61.93102       37.22091       97.28555
H         63.73238       37.22611       97.25993
H         62.83351       37.02198       98.79549
N         62.80807       39.78210       99.07284
C         62.87633       39.25831      100.43364
C         63.91338       39.99500      101.28380
O         63.95488       39.73676      102.47920
C         61.46578       39.33390      101.05832
C         60.92886       40.73219      101.19085
O         59.92738       41.06616      100.57878
O         61.52422       41.60944      102.01807
H         62.68472       40.80140       98.98191
H         63.15766       38.19228      100.45716
H         61.47007       38.86266      102.06485
H         60.78104       38.73695      100.41541
N         64.78447       40.91100      100.75605
C         65.69594       41.70755      101.57245
C         65.48881       43.17918      101.24877
O         66.43649       43.86506      100.88681
C         67.14066       41.26395      101.31019
H         64.81106       41.06924       99.73824
H         65.48982       41.55886      102.65468
H         67.84431       41.85195      101.93833
H         67.25850       40.19005      101.56610
H         67.40531       41.40659      100.24003
N         64.23612       43.71316      101.29353
C         63.93323       45.06185      100.83728
C         62.97858       45.80341      101.80281
O         62.12697       45.01899      102.60699
C         63.54453       45.03610       99.33810
C         62.38328       44.16471       98.96164
O         61.13891       44.47911       99.34627
O         62.55602       43.20921       98.22275
H         63.44887       43.09172      101.52104
H         64.85318       45.68724      100.84455
H         64.43601       44.65775       98.78949
H         63.35500       46.06639       98.96949
N         62.38725       47.01528      101.21593
C         61.42614       47.71780      102.07492
C         60.01836       47.48311      101.59332
O         59.80932       46.75090      100.63670
H         63.18859       47.66260      101.02833
H         61.60380       48.81449      101.99834
H         61.53516       47.43808      103.14637
N         58.99157       48.12921      102.20320
C         57.59359       47.97495      101.81764
C         57.04223       49.27088      101.22264
O         55.86406       49.31268      100.89527
C         56.80036       47.54613      103.06571
C         57.40087       46.30392      103.68299
N         57.95411       46.34847      104.91856
O         57.40841       45.25676      103.05341
H         59.20957       48.77432      102.97966
H         57.47803       47.18561      101.04106
H         55.73605       47.35198      102.81023
H         56.83010       48.37788      103.80297
H         57.97494       47.22627      105.45820
H         58.38125       45.50762      105.33347
N         57.84363       50.36061      101.02617
C         57.36214       51.61629      100.46045
C         58.47252       52.66243      100.34679
O         59.60996       52.36940      100.68702
H         58.83401       50.29076      101.28480
H         56.56165       52.01405      101.12073
H         56.94100       51.42533       99.44936
N         58.25489       53.93123       99.89453
C         56.97535       54.46527       99.45036
C         57.12693       54.95942       98.01529
O         56.83806       56.11619       97.73765
C         56.54080       55.60400      100.41538
C         56.34958       55.09337      101.84904
O         57.51407       56.62003      100.41371
H         59.06250       54.57460       99.87590
H         56.18926       53.68249       99.45451
H         55.56789       56.01136      100.05354
H         57.08275       57.43916      100.77173
H         57.29944       54.68289      102.25369
H         56.02911       55.93012      102.50592
H         55.56983       54.30443      101.87833
N         57.64019       54.13260       97.05624
C         57.91813       54.56533       95.68676
C         57.25045       53.61000       94.69715
O         57.50490       52.41813       94.80100
C         59.45724       54.59926       95.43238
C         60.15166       55.54458       96.44982
C         59.74238       55.05469       93.98358
C         61.67182       55.62589       96.29066
H         57.91209       53.17460       97.32658
H         57.56461       55.60095       95.54794
H         59.86816       53.57301       95.56465
H         59.95452       55.17628       97.47864
H         59.73108       56.57034       96.36165
H         59.24790       54.38575       93.25312
H         59.37406       56.08909       93.81704
H         60.82371       55.01219       93.74933
H         62.09000       56.27582       97.08769
H         62.12542       54.61631       96.37697
H         61.95472       56.07893       95.31896
N         56.44228       54.01274       93.66766
C         56.05923       55.39139       93.38096
C         55.79537       55.61712       91.89945
O         55.04850       54.85730       91.29579
C         54.82270       55.79934       94.20847
C         53.59762       54.97858       93.89837
O         52.60268       55.51485       93.43664
O         53.58629       53.65339       94.13686
H         56.08365       53.27705       93.03789
H         56.87919       56.08391       93.64734
H         54.60604       56.87076       93.99557
H         55.04587       55.70955       95.29207
N         56.28278       56.73883       91.29017
C         55.88976       57.15954       89.95155
C         57.10082       57.59264       89.14118
O         57.84707       58.42709       89.64086
C         54.88139       58.31926       90.09338
C         54.23528       58.66736       88.77021
C         52.90498       58.28296       88.52552
C         54.94327       59.35259       87.76551
C         52.30285       58.56036       87.29621
C         54.33514       59.63123       86.53815
C         53.01771       59.23170       86.30214
H         56.84116       57.40188       91.85132
H         55.32536       56.35468       89.44769
H         55.32965       59.22014       90.56694
H         54.08934       57.95353       90.78466
H         52.33762       57.75087       89.27922
H         55.96388       59.67231       87.92533
H         51.28279       58.24870       87.11364
H         54.88743       60.15376       85.76805
H         52.55013       59.44233       85.34948
N         57.33955       57.16841       87.85945
C         56.50538       56.26291       87.07600
C         56.42669       54.88070       87.67014
O         55.33282       54.35586       87.82687
C         57.20048       56.21412       85.70689
C         57.81184       57.59502       85.62412
C         58.38009       57.74300       87.03046
H         55.49610       56.71422       86.95354
H         58.05564       55.50094       85.72701
H         56.53082       55.93069       84.86654
H         58.55235       57.73417       84.80866
H         56.98668       58.33282       85.49393
H         59.30659       57.13808       87.15013
H         58.58321       58.81532       87.24281
N         57.56608       54.24245       88.04926
C         57.57818       52.90411       88.61639
C         57.17412       51.90739       87.53927
O         57.86352       51.83645       86.53114
C         58.98790       52.56430       89.14584
C         59.37440       53.46027       90.33662
C         60.77143       53.16687       90.79926
O         60.99069       52.70317       92.04396
O         61.71790       53.36155       90.05303
H         58.46123       54.74471       87.94067
H         56.88903       52.87359       89.48581
H         59.72790       52.68024       88.32205
H         59.00930       51.50692       89.49068
H         58.65770       53.27628       91.16666
H         59.32078       54.53640       90.06719
N         56.08035       51.10033       87.64074
C         55.18261       51.09237       88.77508
H         54.37400       50.34976       88.60835
H         55.73382       50.81247       89.69710
H         54.71257       52.08908       88.90243
H         55.87272       50.45382       86.86357
Ca        60.14203       44.25742      101.77372
O         57.72137       42.03648      102.65358
H         57.71811       41.08332      102.38552
H         56.78520       42.33263      102.52615
O         60.12119       43.42383      104.65780
H         59.94952       42.84535      105.44227
H         60.73163       44.12713      104.99443
O         57.79169       43.94273       99.82778
H         57.77960       44.82058       99.36998
H         56.88847       43.85631      100.22389

Ca 1.0



