%chk=apoCaM-CA-Ng.loop4.water3.frame118.chk
%nprocshared=20
%mem=10GB
%nosave
#b3lyp/svp scf=(tight,noincore,xqc) Test 
#IOP(5/87=12) Density=Current Pop=(MK,readradii) iop(6/33=2) iop(6/42=6)

apoCaM-CA-Ng.loop4.water3.frame118 

   -3  1 
C         28.57411       77.56655       13.80403
C         27.54058       78.63539       13.99107
O         27.68887       79.44198       14.89282
H         29.38232       77.66526       14.56192
H         28.10390       76.56766       13.91028
H         29.02559       77.65943       12.79421
N         26.47221       78.71755       13.14674
C         25.43957       79.74854       13.22070
C         26.06454       81.12800       13.03853
O         26.00956       81.98013       13.91206
C         24.44642       79.49935       14.38926
C         24.98417       79.45226       15.78769
O         25.42108       80.56923       16.38207
O         24.94698       78.41044       16.42428
H         26.40778       78.03448       12.37694
H         24.77743       79.62988       12.33359
H         23.98511       78.50656       14.18691
H         23.62961       80.25196       14.35364
N         26.66464       81.38125       11.83764
C         27.33190       82.60728       11.41014
C         26.37197       83.79305       11.39780
O         25.60133       83.88660       10.45265
C         28.71188       82.84263       12.09989
C         29.53266       83.97448       11.40450
C         29.53410       81.54272       12.13464
C         29.95653       83.68936        9.95085
H         26.63809       80.62479       11.13589
H         27.59280       82.42520       10.34749
H         28.55799       83.13265       13.16000
H         30.46226       84.14556       11.98978
H         28.95491       84.92220       11.41784
H         30.52758       81.73332       12.57972
H         29.02507       80.78085       12.75807
H         29.67631       81.11701       11.12124
H         30.58962       82.78048        9.88453
H         29.08529       83.57533        9.27554
H         30.55870       84.53803        9.56516
N         26.35193       84.73175       12.39265
C         25.42754       85.86306       12.41242
C         26.12520       87.21984       12.24773
O         25.70296       87.93635       11.35034
C         24.53147       85.82693       13.66929
C         23.67993       84.58747       13.70766
O         22.88923       84.35539       12.80680
O         23.76775       83.73764       14.74696
H         26.98289       84.62004       13.19159
H         24.72240       85.79415       11.55272
H         23.84901       86.70535       13.65585
H         25.13002       85.87731       14.59704
N         27.13859       87.71644       13.02321
C         27.85487       86.99339       14.05979
C         28.88345       87.86731       14.77154
O         29.44491       88.73985       14.12413
H         27.43133       88.68548       12.82247
H         28.41743       86.16331       13.58829
H         27.14381       86.57564       14.76863
N         29.31327       87.64521       16.05496
C         28.82874       86.62373       16.97736
C         28.94881       85.24771       16.32861
O         27.93840       84.58588       16.14283
C         27.43402       87.03688       17.51386
C         26.96096       86.18840       18.65727
O         25.86634       85.65505       18.61028
O         27.70696       86.07545       19.77243
H         30.08199       88.23831       16.40391
H         29.47998       86.63240       17.87850
H         26.65706       87.06122       16.72992
H         27.52517       88.07080       17.90936
N         30.14865       84.75778       15.88747
C         31.43528       85.40209       16.10327
C         31.84074       86.25549       14.93443
O         31.13886       86.30178       13.93422
H         30.15537       83.87780       15.35603
H         32.20757       84.63174       16.31446
H         31.40251       86.05424       16.99603
N         32.98307       86.98906       15.01179
C         33.38559       87.94094       13.98586
C         34.43517       87.34978       13.06612
O         34.81490       88.02289       12.11824
C         33.83040       89.26458       14.64691
C         32.67281       89.90356       15.44153
C         33.03258       91.20673       16.11246
N         32.09198       91.87388       16.82170
O         34.16168       91.66715       16.02415
H         33.59176       86.87409       15.83829
H         32.52636       88.17097       13.31688
H         34.15398       89.98037       13.85970
H         34.69269       89.07106       15.32369
H         32.33127       89.20220       16.23176
H         31.82811       90.09694       14.74584
H         31.13418       91.50113       16.90434
H         32.31742       92.76540       17.28758
N         34.88736       86.07103       13.22854
C         35.74503       85.39553       12.26364
C         37.10566       85.05441       12.85259
O         37.90355       84.46594       12.13406
C         35.01174       84.14536       11.68359
C         33.70481       84.55600       10.98144
C         34.71290       83.06175       12.73559
H         34.58040       85.52022       14.04065
H         35.95856       86.06262       11.39951
H         35.67220       83.69023       10.91242
H         32.98495       85.00002       11.70257
H         33.91209       85.30038       10.18344
H         33.22347       83.67227       10.51034
H         34.24433       82.18106       12.24529
H         35.64922       82.72100       13.22363
H         34.00984       83.42452       13.51324
N         37.47279       85.43378       14.11513
C         38.80569       85.19702       14.66079
C         38.79131       84.37519       15.93802
O         39.87334       84.06161       16.41043
C         39.47972       86.55187       14.95713
C         39.64607       87.39018       13.71777
N         40.43310       86.96872       12.70085
O         39.07733       88.46855       13.63780
H         36.81140       85.96259       14.70323
H         39.42995       84.63135       13.93535
H         40.48658       86.39558       15.40142
H         38.85816       87.10250       15.69882
H         40.93275       86.06945       12.75790
H         40.55346       87.54899       11.85792
N         37.63692       83.98258       16.55752
C         37.64966       83.21643       17.80819
C         36.27355       82.68653       18.17148
O         35.28702       83.13779       17.61574
C         38.26865       84.05274       18.96250
C         37.59420       85.39702       19.15698
C         38.21252       86.56561       18.67423
C         36.36116       85.50616       19.82223
C         37.60599       87.81340       18.84058
C         35.76268       86.76002       20.00253
C         36.38278       87.91753       19.50777
O         35.81774       89.13162       19.66936
H         36.73676       84.22015       16.12361
H         38.26890       82.30972       17.63155
H         39.33243       84.23606       18.71559
H         38.29593       83.49376       19.92221
H         39.16113       86.51182       18.15535
H         35.87101       84.62637       20.21629
H         38.09023       88.70119       18.45225
H         34.81859       86.83195       20.52787
H         34.97640       89.25296       20.13191
N         36.16732       81.69601       19.11164
C         34.94044       81.01568       19.52901
C         34.43661       79.98897       18.50713
O         34.31340       78.82737       18.87116
C         33.85849       82.01683       19.99675
C         32.66781       81.30883       20.66306
C         31.73542       82.30019       21.29792
O         32.18266       83.12136       22.26766
O         30.56332       82.34509       20.96710
H         37.03322       81.39730       19.58485
H         35.20806       80.42217       20.43433
H         33.48190       82.64254       19.16051
H         34.33378       82.68320       20.74944
H         33.03446       80.63709       21.46759
H         32.12485       80.69582       19.90937
N         34.08632       80.33434       17.23691
C         33.44578       79.42140       16.29077
C         34.32530       78.26017       15.84032
O         33.80844       77.39227       15.14804
C         32.98859       80.18411       15.01910
C         32.13408       81.44079       15.26194
C         30.84117       81.17948       15.96567
O         29.69018       81.49831       15.35390
O         30.82475       80.77429       17.11661
H         34.20584       81.30183       16.95496
H         32.55089       78.99638       16.79384
H         32.41674       79.49311       14.36003
H         33.89382       80.51551       14.46360
H         31.92304       81.89749       14.27728
H         32.68311       82.21327       15.83179
N         35.65126       78.17430       16.14236
C         36.46581       77.07837       15.65825
H         37.51514       77.20116       15.99891
H         36.07428       76.11206       16.04189
H         36.45579       77.06122       14.54632
H         36.11070       78.90486       16.70306
Ca        27.82331       81.68628       16.56813
O         25.35718       83.21300       17.25645
H         25.70144       83.15547       18.18318
H         24.54917       83.78065       17.31975
O         28.87098       82.99186       18.79267
H         29.78211       82.73366       18.50536
H         28.99131       83.87168       19.22547
O         27.97082       79.16851       18.16055
H         27.65557       78.26391       18.40876
H         28.68552       79.00779       17.49445

Ca 1.0



