%chk=apoCaM-CA-Ng.loop4.water3.frame475.chk
%nprocshared=20
%mem=10GB
%nosave
#b3lyp/svp scf=(tight,noincore,xqc) Test 
#IOP(5/87=12) Density=Current Pop=(MK,readradii) iop(6/33=2) iop(6/42=6)

apoCaM-CA-Ng.loop4.water3.frame475 

   -3  1 
C         30.62410       57.39730      103.30220
C         29.90250       57.61719      104.59406
O         29.54258       56.63602      105.21454
H         31.54186       56.80209      103.50384
H         29.97409       56.82862      102.60573
H         30.91985       58.35632      102.83209
N         29.69701       58.87159      105.08881
C         29.11523       59.14530      106.39816
C         29.91625       58.49094      107.50148
O         29.37883       57.67828      108.22635
C         27.56478       58.99079      106.47721
C         26.79650       57.81199      105.90183
O         26.88734       56.53450      106.32922
O         25.94843       58.05371      105.05700
H         30.05026       59.67644      104.55033
H         29.24770       60.23150      106.61154
H         27.16817       59.87667      105.93005
H         27.25506       59.13239      107.53640
N         31.21499       58.88285      107.69643
C         32.13222       58.47680      108.76869
C         31.63534       58.97716      110.12086
O         32.20780       59.92971      110.63327
C         32.48767       56.96785      108.71643
C         33.50189       56.54252      109.81473
C         33.01862       56.60759      107.31668
C         34.86181       57.24902      109.76544
H         31.59250       59.57700      107.03226
H         33.07752       59.03073      108.56928
H         31.56654       56.37277      108.88751
H         33.67888       55.44847      109.72517
H         33.05854       56.72415      110.81592
H         33.30600       55.54410      107.27357
H         32.23912       56.78080      106.54558
H         33.90812       57.21418      107.05041
H         35.50878       56.85335      110.57649
H         35.37724       57.06583      108.80120
H         34.75272       58.34077      109.92544
N         30.54252       58.43786      110.72688
C         29.88360       59.05591      111.86284
C         30.66782       58.86852      113.16112
O         31.01245       59.88819      113.74142
C         28.40137       58.63079      111.89683
C         27.59460       59.43331      112.87853
O         26.91068       58.81701      113.85948
O         27.52305       60.64752      112.76521
H         30.09183       57.61896      110.31345
H         29.82516       60.14890      111.64536
H         28.29770       57.55101      112.08286
H         27.96458       58.82161      110.89080
N         31.05725       57.66722      113.69628
C         30.82253       56.34055      113.14587
C         29.47189       55.77387      113.53772
O         28.72479       56.45401      114.22666
H         31.65229       57.70369      114.53925
H         31.56928       55.65267      113.59627
H         31.01363       56.34195      112.06101
N         29.07407       54.50984      113.19525
C         29.88053       53.55461      112.42803
C         30.15848       54.06565      111.01486
O         29.47976       54.99371      110.59633
C         29.19079       52.16157      112.41332
C         27.87538       52.11576      111.67153
O         26.82868       52.86586      112.06528
O         27.73845       51.35396      110.72829
H         28.15809       54.20595      113.55604
H         30.83753       53.44342      112.97368
H         29.01630       51.83859      113.46112
H         29.85889       51.40667      111.96733
N         31.12659       53.56198      110.19016
C         32.06816       52.49133      110.46771
C         33.09808       52.85924      111.49813
O         33.09543       53.97333      112.00333
H         31.21917       53.99121      109.26784
H         32.64052       52.27313      109.54077
H         31.54317       51.56053      110.73182
N         34.04536       51.94047      111.83514
C         35.10387       52.20073      112.80140
C         36.49617       52.14585      112.16942
O         37.43076       52.57759      112.83040
C         34.89693       51.32987      114.06179
C         34.78174       49.81263      113.83451
C         36.06203       49.19787      113.36907
N         37.16622       49.25390      114.14457
O         36.09967       48.62193      112.29552
H         34.00216       51.01365      111.38548
H         35.02052       53.25081      113.15979
H         33.92726       51.64444      114.50658
H         35.68496       51.55636      114.81127
H         33.96047       49.59541      113.11860
H         34.50787       49.32636      114.79469
H         37.14627       49.71573      115.06417
H         38.04174       48.82396      113.83310
N         36.70423       51.73927      110.87674
C         37.94638       52.00192      110.14298
C         38.70579       50.75319      109.69642
O         39.75471       50.92620      109.09080
C         37.62932       52.90304      108.90142
C         37.03167       54.25279      109.32714
C         36.68966       52.22515      107.87964
H         35.92892       51.31862      110.35156
H         38.65887       52.56303      110.78716
H         38.58642       53.12177      108.37754
H         36.86372       54.89514      108.43561
H         36.05852       54.11532      109.84521
H         37.72999       54.78419      110.00718
H         37.11313       51.26056      107.53059
H         35.67881       52.04135      108.29892
H         36.55986       52.87853      106.99067
N         38.25747       49.48425      109.92240
C         38.93661       48.29808      109.39538
C         38.06307       47.57044      108.38663
O         38.52630       46.56603      107.85849
C         39.27855       47.28103      110.51132
C         40.18387       47.78189      111.60279
N         41.41849       48.26001      111.33325
O         39.81402       47.70515      112.76204
H         37.37947       49.34991      110.43253
H         39.87578       48.57967      108.87146
H         39.79426       46.40985      110.04895
H         38.33188       46.91124      110.96456
H         41.76865       48.31335      110.36725
H         42.03036       48.56899      112.10377
N         36.79698       47.97624      108.07022
C         35.93080       47.16643      107.21844
C         34.67332       47.88844      106.76565
O         34.33966       48.92066      107.32175
C         35.55729       45.85079      107.96593
C         35.02668       46.06343      109.38601
C         35.73431       45.53024      110.48265
C         33.83759       46.77261      109.64567
C         35.26482       45.69886      111.79117
C         33.37054       46.94129      110.95319
C         34.07835       46.40478      112.02964
O         33.61318       46.57891      113.28392
H         36.43012       48.85582      108.45899
H         36.48227       46.94667      106.27718
H         36.47075       45.22472      108.02965
H         34.82558       45.26193      107.37475
H         36.65400       44.98030      110.33008
H         33.25786       47.20134      108.85100
H         35.82472       45.28254      112.61944
H         32.45408       47.49111      111.12990
H         34.07613       46.23222      114.05999
N         33.92274       47.33957      105.75707
C         32.63538       47.80393      105.22754
C         32.67060       49.11580      104.44120
O         32.32710       49.08841      103.26665
C         31.54862       47.83160      106.31956
C         31.28623       46.42311      106.87842
C         30.22320       46.45555      107.93700
O         29.18991       45.82314      107.78850
O         30.40766       47.17425      109.06090
H         34.27319       46.46004      105.34585
H         32.30180       47.04219      104.48440
H         30.59824       48.19758      105.87066
H         31.83425       48.53328      107.13162
H         32.20934       45.99047      107.31149
H         30.96373       45.75681      106.04799
N         32.98542       50.30698      105.01793
C         32.83660       51.60056      104.35212
C         33.71297       51.75705      103.11636
O         33.49739       52.71328      102.38292
C         33.17354       52.74454      105.34063
C         32.32491       52.75888      106.62818
C         30.92856       53.26322      106.43311
O         30.13302       52.67360      105.72130
O         30.55200       54.35510      107.12426
H         33.26431       50.30798      105.99368
H         31.77831       51.68677      104.02380
H         33.09451       53.74044      104.84972
H         34.23536       52.60320      105.64209
H         32.82560       53.43443      107.34552
H         32.28551       51.77511      107.13020
N         34.72541       50.89475      102.81831
C         35.53330       51.05577      101.62803
H         36.32059       50.27372      101.59328
H         34.89459       50.95874      100.72399
H         36.02222       52.05370      101.62817
H         34.95057       50.11317      103.44947
Ca        28.53953       55.32920      107.23671
O         27.93021       52.52707      107.87120
H         28.04784       51.54705      107.94383
H         27.25707       52.75579      108.56011
O         26.88140       53.80516      105.00796
H         27.85448       53.63658      105.05867
H         26.80638       54.62770      104.46258
O         26.73319       56.31855      109.74487
H         26.42788       57.24290      109.56364
H         26.64460       56.21426      110.72554

Ca 1.0



