%chk=apoCaM-CA-Ng.loop1.water2.frame1282.chk
%nprocshared=20
%mem=10GB
%nosave
#b3lyp/svp scf=(tight,noincore,xqc) Test 
#IOP(5/87=12) Density=Current Pop=(MK,readradii) iop(6/33=2) iop(6/42=6)

apoCaM-CA-Ng.loop1.water2.frame1282 

   0  1 
C         36.89945       33.82453       24.91086
C         38.12029       34.63246       24.61770
O         38.00283       35.71794       24.06681
H         36.03131       34.21202       24.33982
H         37.07623       32.76645       24.61882
H         36.69370       33.87190       25.99948
N         39.33812       34.14068       24.97513
C         40.61415       34.81247       24.73447
C         41.15403       34.54525       23.32915
O         42.29894       34.14403       23.16280
C         41.61593       34.43193       25.84815
C         41.91769       32.95144       25.98177
O         42.78182       32.54546       26.92888
O         41.39267       32.11521       25.26130
H         39.33209       33.24207       25.47498
H         40.45609       35.91222       24.80792
H         41.19206       34.77887       26.81469
H         42.56915       34.97350       25.67335
N         40.35217       34.77306       22.26033
C         40.73182       34.62055       20.87351
C         41.50913       35.83472       20.41014
O         42.59296       35.61794       19.88691
C         39.49393       34.28765       20.00609
C         38.91865       32.90988       20.43560
C         37.65730       32.52018       19.65542
C         36.88867       31.34921       20.30944
N         35.52068       31.28472       19.78392
H         39.39150       35.05183       22.43087
H         41.39359       33.73229       20.75922
H         39.78605       34.24402       18.93564
H         38.72069       35.08244       20.11600
H         38.64630       32.98263       21.51015
H         39.68690       32.11407       20.31877
H         37.89618       32.27612       18.59640
H         36.99510       33.40704       19.67862
H         36.82029       31.51783       21.40749
H         37.41349       30.37655       20.15690
H         34.92562       30.69119       20.40646
H         35.09454       32.24098       19.77320
H         35.51737       30.89362       18.81571
N         41.12525       37.14038       20.55458
C         39.92105       37.70241       21.17941
C         40.28721       38.56113       22.39300
O         41.45770       38.73150       22.69193
C         39.12427       38.49599       20.12947
C         40.01848       39.36833       19.30009
O         40.94265       40.15271       19.88323
O         40.08126       39.16068       18.09907
H         41.79638       37.82705       20.18662
H         39.24150       36.93063       21.55753
H         38.29471       39.06858       20.59374
H         38.67170       37.75412       19.43687
N         39.31184       39.08297       23.18880
C         39.59216       39.72826       24.46491
C         40.48265       40.96158       24.41477
O         40.61171       41.60113       23.38243
H         38.32449       38.91546       22.94382
H         40.07772       38.97301       25.11965
H         38.63515       40.01380       24.95302
N         41.16330       41.31214       25.54607
C         42.01584       42.49048       25.71284
C         41.70578       43.12650       27.06420
O         41.66339       42.39648       28.04584
C         43.50112       42.07901       25.72789
C         43.89736       41.44772       24.42930
O         43.87244       42.09991       23.40040
O         44.27615       40.15737       24.39239
H         41.09796       40.66765       26.34873
H         41.88592       43.20632       24.87258
H         43.69394       41.36803       26.55889
H         44.14610       42.97518       25.89132
N         41.56935       44.46551       27.25933
C         41.76891       45.46601       26.23376
C         40.57399       45.68605       25.34320
O         39.50563       45.14338       25.58347
H         41.44835       44.79771       28.23027
H         42.70442       45.26759       25.67236
H         41.90185       46.44736       26.74440
N         40.69156       46.62841       24.36615
C         39.56275       47.31925       23.73743
C         38.73912       46.49676       22.75739
O         37.78577       47.03006       22.20423
C         40.04517       48.68517       23.18701
C         40.89605       48.58402       21.92013
O         40.79691       49.32267       24.19578
H         41.63642       47.01705       24.22447
H         38.86371       47.59009       24.55854
H         39.15235       49.30501       22.93268
H         40.38546       50.20545       24.38010
H         40.25316       48.30592       21.06001
H         41.35116       49.57577       21.70661
H         41.71056       47.83805       22.02381
N         38.98925       45.17243       22.57200
C         38.09564       44.25486       21.88212
C         38.80818       43.65000       20.69990
O         39.86077       43.05041       20.86323
C         37.62819       43.17409       22.90004
C         36.73307       43.83338       23.97431
C         36.90877       42.00166       22.21823
C         36.26274       42.87703       25.07244
H         39.80872       44.74960       23.02290
H         37.18941       44.78134       21.50368
H         38.52079       42.75939       23.40180
H         35.84366       44.29174       23.49126
H         37.30716       44.64176       24.46813
H         36.61168       41.23979       22.96504
H         36.01476       42.36357       21.67256
H         37.59562       41.47773       21.52102
H         37.12395       42.35477       25.54178
H         35.72986       43.46572       25.84591
H         35.54735       42.12421       24.68177
N         38.26017       43.79156       19.46229
C         38.85755       43.29512       18.23621
C         39.38490       44.43648       17.37260
O         39.92200       44.14447       16.31513
C         37.85508       42.43621       17.42146
C         36.51795       43.11921       17.17176
O         37.58266       41.24215       18.08827
H         37.38499       44.32634       19.37905
H         39.70610       42.64202       18.47375
H         38.31683       42.21272       16.42565
H         38.36159       40.67457       17.90855
H         35.92977       42.51320       16.45119
H         35.94532       43.15180       18.12322
H         36.65659       44.14624       16.77996
N         39.26385       45.75033       17.72987
C         39.66881       46.85082       16.85258
C         41.15844       46.79751       16.55752
O         41.94992       46.89855       17.48639
C         39.29372       48.21426       17.48866
C         39.58094       49.41031       16.56602
O         37.93823       48.22548       17.86369
H         38.81827       45.98399       18.62787
H         39.09845       46.74509       15.90478
H         39.89860       48.34208       18.41338
H         37.39378       48.24140       17.03336
H         38.95749       49.35091       15.64763
H         39.32775       50.35138       17.09844
H         40.65002       49.44993       16.27234
N         41.59718       46.60760       15.27213
C         42.99620       46.43055       14.88032
C         43.72147       45.56500       15.89184
O         44.73547       45.95701       16.45399
C         43.66319       47.78518       14.59779
C         43.06602       48.44319       13.33779
C         43.87246       49.66270       12.87953
C         45.24338       49.29286       12.28003
N         45.92616       50.50322       11.83060
H         40.89140       46.48859       14.53149
H         43.02366       45.85281       13.92913
H         44.73709       47.59355       14.42530
H         43.55923       48.46832       15.47095
H         42.02023       48.75360       13.55717
H         43.03359       47.72562       12.48703
H         44.00163       50.37295       13.72312
H         43.29253       50.16747       12.07637
H         45.09519       48.60656       11.41442
H         45.89393       48.76998       13.01293
H         45.29769       51.05807       11.20536
H         46.18740       51.07997       12.66301
H         46.79054       50.24735       11.30198
N         43.14473       44.38546       16.23173
C         43.55699       43.57996       17.36137
C         42.41236       42.68518       17.78156
O         41.94349       42.91249       18.88122
C         44.85759       42.81259       17.11005
C         45.14939       41.81372       18.25750
C         45.34981       42.50313       19.59553
O         44.48940       42.39837       20.64454
O         46.32402       43.22212       19.73094
H         42.26833       44.14451       15.75300
H         43.73140       44.26735       18.22421
H         45.69075       43.53265       16.96933
H         44.77822       42.25846       16.15949
H         46.06359       41.24267       17.98678
H         44.32158       41.07725       18.32176
N         41.86862       41.67817       17.03496
C         42.29475       41.24447       15.72329
H         43.30644       40.80418       15.76389
H         41.62368       40.43287       15.36891
H         42.23810       42.07137       14.99165
H         41.07393       41.17300       17.43506
Ca        42.43703       41.44676       20.94611
O         43.88966       39.26451       20.85744
H         43.44041       38.63634       21.46839
H         44.47890       39.78311       21.45815
O         42.60457       44.33091       22.10480
H         42.86416       44.81628       21.28204
H         43.13980       44.75164       22.82383

Ca 1.0



