%chk=apoCaM-CA-Ng.loop2.water6.frame200.chk
%nprocshared=20
%mem=10GB
%nosave
#b3lyp/svp scf=(tight,noincore,xqc) Test 
#IOP(5/87=12) Density=Current Pop=(MK,readradii) iop(6/33=2) iop(6/42=6)

apoCaM-CA-Ng.loop2.water6.frame200 

   -2  1 
C         17.03925       21.47754       43.26556
C         17.56290       20.59282       44.35961
O         18.16414       19.57216       44.06301
H         15.94043       21.59585       43.35939
H         17.51887       22.47632       43.33927
H         17.26814       21.04809       42.26645
N         17.38313       20.94130       45.66422
C         17.91331       20.16459       46.78229
C         17.30411       18.77368       46.81344
O         16.09576       18.66054       46.96829
C         17.62386       20.90136       48.11142
C         18.20127       20.23959       49.33816
O         17.99701       20.80265       50.54369
O         18.85323       19.20971       49.26230
H         16.87536       21.81839       45.86114
H         19.01731       20.09792       46.66049
H         16.52329       20.99440       48.24532
H         18.05151       21.92530       48.05112
N         18.09306       17.66823       46.66579
C         17.56910       16.30725       46.69175
C         17.59144       15.67045       45.31410
O         17.01085       14.60353       45.16364
C         18.34451       15.46790       47.70854
H         19.10389       17.79711       46.50381
H         16.50039       16.32211       46.99949
H         17.92833       14.43950       47.76508
H         19.41561       15.40519       47.41806
H         18.27436       15.93218       48.71521
N         18.17875       16.28263       44.24203
C         18.02639       15.78898       42.87799
C         16.59662       16.00292       42.37835
O         16.29072       15.55834       41.28027
C         19.00333       16.51353       41.92582
C         20.45377       16.30248       42.28389
O         20.81400       15.53563       43.33295
O         21.32050       16.83040       41.60653
H         18.72565       17.14112       44.38206
H         18.26835       14.70233       42.85731
H         18.78506       17.60418       41.93713
H         18.85574       16.13675       40.89026
N         15.66888       16.68253       43.11963
C         14.29902       16.89832       42.70253
C         13.57850       15.58925       42.50684
O         13.58819       14.76257       43.40777
H         15.92020       17.08774       44.03060
H         14.28054       17.51460       41.77846
H         13.77739       17.46545       43.50261
N         12.90184       15.35129       41.35056
C         12.20203       14.11027       41.05413
C         12.64800       13.56412       39.70728
O         13.45801       14.17937       39.02702
C         10.67720       14.35894       41.07993
C         10.18603       14.56331       42.49465
N          9.54694       15.69568       42.86380
O         10.35166       13.67360       43.31679
H         12.85886       16.09468       40.64141
H         12.44269       13.32696       41.80627
H         10.13332       13.47264       40.69452
H         10.42267       15.22219       40.42499
H          9.38077       16.45315       42.18940
H          9.20758       15.80824       43.83146
N         12.16097       12.36836       39.27713
C         12.53292       11.74458       38.02126
C         12.05995       12.54130       36.82837
O         10.87353       12.82646       36.74318
H         11.50884       11.85002       39.88487
H         12.03642       10.75153       37.96795
H         13.63071       11.57408       37.99367
N         12.92850       12.88161       35.83153
C         12.48907       13.53187       34.59490
C         12.38885       15.05141       34.73478
O         11.90817       15.69183       33.80994
C         13.37774       13.11274       33.39006
C         14.81640       13.65265       33.44011
O         13.37657       11.71262       33.24223
H         13.90651       12.57054       35.91832
H         11.47273       13.14623       34.35244
H         12.92139       13.53405       32.46782
H         13.96291       11.32403       33.94313
H         15.37060       13.31716       32.53820
H         14.80574       14.75842       33.43575
H         15.36242       13.29836       34.33781
N         12.82671       15.69279       35.85591
C         12.73698       17.13564       36.09034
C         11.87234       17.38947       37.32012
O         11.33702       16.43254       37.86769
C         14.16264       17.75450       36.24642
C         14.97498       17.07947       37.38352
C         14.90729       17.71091       34.90197
C         16.24959       17.83856       37.74818
H         13.24081       15.13120       36.61056
H         12.23519       17.65432       35.24327
H         14.04487       18.82886       36.49161
H         15.24478       16.03927       37.09961
H         14.35641       17.04059       38.30539
H         15.87803       18.24177       34.95892
H         15.09156       16.66705       34.58844
H         14.30609       18.22036       34.11765
H         15.99279       18.86533       38.08575
H         16.76268       17.31194       38.58044
H         16.95315       17.89542       36.89438
N         11.70725       18.64868       37.83384
C         10.90430       18.89980       39.02358
C         10.00387       20.11021       38.81182
O          9.96172       21.00175       39.64914
C         11.85169       19.05128       40.22913
C         11.15548       19.00576       41.55998
O          9.94303       18.89080       41.63915
O         11.88957       19.05330       42.68360
H         12.20274       19.44729       37.41265
H         10.25219       18.01827       39.21143
H         12.44736       19.98491       40.13524
H         12.56277       18.20639       40.21261
N          9.28204       20.21524       37.66389
C          8.38369       21.32464       37.35323
C          9.07490       22.68693       37.51180
O         10.10109       22.88892       36.87973
C          7.91305       21.18410       35.88944
C          6.99222       22.30386       35.48156
C          5.64670       22.30703       35.88036
C          7.48592       23.36692       34.70650
C          4.80602       23.35820       35.50042
C          6.64798       24.42214       34.34350
C          5.30750       24.41643       34.73612
H          9.39554       19.46656       36.96252
H          7.50777       21.24545       38.02610
H          7.41740       20.20578       35.70596
H          8.82417       21.20478       35.25024
H          5.24985       21.49367       36.47539
H          8.52512       23.38845       34.40122
H          3.76648       23.35417       35.80021
H          7.04044       25.24391       33.75892
H          4.65882       25.23291       34.44846
N          8.54803       23.69231       38.28581
C          9.11696       25.02985       38.42253
C         10.56471       25.06458       38.86859
O         11.34868       25.77809       38.25836
C          8.23401       25.69159       39.48946
C          6.89339       25.07064       39.19744
C          7.27616       23.60983       38.98178
H          8.99806       25.56376       37.45156
H          8.52535       25.34175       40.50621
H          8.25825       26.80276       39.47777
H          6.10744       25.23714       39.96387
H          6.53818       25.49035       38.22649
H          7.42554       23.06102       39.93719
H          6.46433       23.15304       38.38094
N         10.98689       24.33002       39.93893
C         12.34821       24.40334       40.47358
C         13.41698       24.05839       39.44798
O         14.56862       24.40126       39.68127
C         12.51469       23.45831       41.68188
C         11.66179       23.87300       42.88747
C         11.76257       22.84049       43.96855
O         11.28539       21.60084       43.74563
O         12.25197       23.12119       45.05015
H         10.29994       23.71403       40.39836
H         12.52817       25.45535       40.79211
H         13.57674       23.45020       42.01586
H         12.24827       22.42843       41.35177
H         10.58986       23.96967       42.61998
H         12.02102       24.85845       43.25696
N         13.13371       23.37686       38.30568
C         14.14572       23.09155       37.31403
H         14.96968       22.50105       37.76713
H         13.70225       22.50978       36.47879
H         14.54974       24.04423       36.90868
H         12.18110       23.03697       38.13307
Ca        11.28464       20.00010       45.34022
O         11.72546       16.79627       45.39996
H         11.68890       16.57621       46.36410
H         11.55992       15.93273       44.94634
O         14.23966       20.19398       44.92336
H         14.30111       20.94380       45.56727
H         13.98108       19.41373       45.47482
O          9.10544       18.30170       46.59655
H          8.39290       18.46859       47.26312
H          8.68533       17.70939       45.92339
O         10.52311       21.72148       47.72627
H         10.73384       22.18069       46.87632
H          9.58604       21.97807       47.91301
O         12.05952       18.92210       48.04328
H         12.91004       19.42525       48.10451
H         12.28619       18.01001       48.35380
O          8.03244       19.96786       44.10285
H          8.95759       19.79657       43.79777
H          7.50520       20.03814       43.26793

Ca 1.0



