%chk=apoCaM-CA-Ng.loop4.water3.frame487.chk
%nprocshared=20
%mem=10GB
%nosave
#b3lyp/svp scf=(tight,noincore,xqc) Test 
#IOP(5/87=12) Density=Current Pop=(MK,readradii) iop(6/33=2) iop(6/42=6)

apoCaM-CA-Ng.loop4.water3.frame487 

   -3  1 
C         50.69074       71.03447       99.12989
C         49.63033       71.39668      100.12302
O         48.63052       70.70238      100.18053
H         51.64074       70.81834       99.65913
H         50.38937       70.13342       98.55120
H         50.83960       71.87484       98.42044
N         49.77467       72.49777      100.91814
C         48.77639       72.98290      101.86970
C         47.88902       71.91970      102.49940
O         46.69534       71.90449      102.25452
C         48.01725       74.21885      101.34047
C         47.64017       74.22106       99.87369
O         46.92907       73.25778       99.24281
O         48.02314       75.16386       99.19846
H         50.61283       73.08327      100.78144
H         49.31471       73.36643      102.76730
H         48.69262       75.09543      101.48048
H         47.13481       74.42093      101.98411
N         48.43104       71.08107      103.43307
C         47.71202       70.15183      104.30748
C         46.80310       70.92272      105.26629
O         47.18134       71.06930      106.42065
C         47.01317       68.99674      103.53621
C         46.28886       67.98954      104.47069
C         48.01040       68.26471      102.62229
C         47.19544       67.25016      105.46225
H         49.44788       71.15340      103.59647
H         48.49866       69.68509      104.94223
H         46.24067       69.43229      102.87715
H         45.77789       67.23012      103.84039
H         45.50288       68.51971      105.04909
H         48.45252       68.96494      101.89187
H         48.84492       67.82084      103.20171
H         47.49336       67.46590      102.04943
H         47.68256       67.95632      106.16472
H         46.58292       66.54460      106.06153
H         47.97131       66.65763      104.93650
N         45.59924       71.43714      104.87662
C         44.77317       72.28756      105.72340
C         43.60507       71.53155      106.37166
O         43.51000       71.66275      107.58504
C         44.36079       73.57641      104.98053
C         45.52339       74.45907      104.59398
O         45.30802       75.51138      104.01396
O         46.79410       74.11919      104.88747
H         45.25179       71.24571      103.93268
H         45.37610       72.65890      106.58585
H         43.69858       74.17631      105.64366
H         43.81939       73.32728      104.05619
N         42.69948       70.69229      105.76974
C         42.61896       70.25565      104.38361
C         41.99965       71.28079      103.45333
O         41.69439       72.37553      103.90116
H         42.02612       70.23135      106.40296
H         41.93001       69.38480      104.35567
H         43.59808       69.87394      104.05478
N         41.70147       71.00550      102.14338
C         41.86670       69.69873      101.49685
C         43.31957       69.24686      101.46936
O         44.18969       70.08289      101.66047
C         41.24416       69.72304      100.07318
C         41.89573       70.71596       99.15049
O         41.17620       71.73675       98.64733
O         43.06502       70.58652       98.82733
H         41.26023       71.76295      101.59840
H         41.29313       68.97277      102.11212
H         40.16869       69.98377      100.17772
H         41.29181       68.73676       99.57532
N         43.69220       67.93989      101.31417
C         42.79027       66.81797      101.09025
C         42.67592       65.95192      102.31224
O         43.24826       66.27994      103.34303
H         44.69524       67.71173      101.40125
H         43.16007       66.23006      100.22279
H         41.75985       67.13325      100.87048
N         41.90427       64.82722      102.26858
C         41.66253       63.98924      103.43723
C         42.39821       62.65702      103.36509
O         42.42941       61.97004      104.37702
C         40.14760       63.89486      103.73795
C         39.24694       63.30106      102.63712
C         39.56776       61.87291      102.31362
N         39.55441       60.92432      103.27699
O         39.82916       61.56584      101.16315
H         41.47150       64.56322      101.37028
H         42.10784       64.47892      104.33077
H         39.77989       64.92796      103.92383
H         40.00301       63.32809      104.68161
H         39.30235       63.92136      101.71621
H         38.19559       63.33708      102.99411
H         39.32505       61.15852      104.25232
H         39.78348       59.95004      103.05175
N         43.10190       62.27640      102.25691
C         44.07408       61.18124      102.26030
C         43.75100       60.05551      101.28770
O         44.53163       59.11532      101.23164
C         45.49213       61.75687      101.94704
C         45.94030       62.74090      103.03667
C         45.57900       62.43778      100.56317
H         43.02257       62.83772      101.39971
H         44.11945       60.70343      103.26396
H         46.21768       60.91343      101.95278
H         46.97120       63.09867      102.82796
H         45.26482       63.62166      103.08460
H         45.94389       62.23644      104.02616
H         45.27117       61.73934       99.75707
H         44.94689       63.34841      100.50631
H         46.62351       62.75429      100.36024
N         42.65034       60.07082      100.48719
C         42.38867       59.04931       99.47878
C         42.36018       59.65739       98.08287
O         42.17549       58.89216       97.14448
C         41.04404       58.33562       99.75445
C         40.99949       57.60383      101.07349
N         41.87822       56.61523      101.35842
O         40.13251       57.88429      101.88459
H         41.98886       60.84866      100.56137
H         43.19175       58.28164       99.47241
H         40.86124       57.57991       98.95954
H         40.21789       59.07964       99.71421
H         42.60725       56.34153      100.68537
H         41.82261       56.11435      102.25824
N         42.53059       60.99854       97.84661
C         42.40097       61.58224       96.50968
C         42.78929       63.06480       96.44656
O         42.99726       63.70287       97.47022
C         40.94119       61.38033       95.99708
C         39.89684       61.88210       96.98212
C         39.74356       63.25275       97.24984
C         39.06301       60.96649       97.65238
C         38.79113       63.69896       98.16963
C         38.11158       61.41367       98.57520
C         37.97306       62.77967       98.83859
O         37.05485       63.19592       99.73402
H         42.74236       61.62723       98.63241
H         43.11394       61.05708       95.83532
H         40.77674       60.29630       95.83741
H         40.78472       61.84593       95.00191
H         40.35303       63.98267       96.74763
H         39.15504       59.90258       97.47280
H         38.69167       64.76004       98.36104
H         37.48488       60.69660       99.09082
H         36.93158       64.13216       99.94691
N         42.88514       63.66437       95.22058
C         43.13653       65.08122       94.92996
C         44.53460       65.60621       95.27111
O         44.86208       66.67439       94.77316
C         42.01418       65.96156       95.53335
C         42.08685       67.44532       95.12525
C         40.95163       68.26086       95.67659
O         39.99839       67.70248       96.44833
O         40.89974       69.45516       95.43078
H         42.71007       63.06743       94.39629
H         43.06510       65.17017       93.82106
H         42.04183       65.89601       96.64166
H         41.04308       65.55804       95.17186
H         42.07597       67.51933       94.01585
H         43.01530       67.90552       95.51631
N         45.42802       64.94580       96.05789
C         46.75585       65.48048       96.35960
C         47.84329       64.58167       95.78007
O         49.00912       64.92723       95.91929
C         46.93025       65.61010       97.89043
C         45.96555       66.58804       98.60371
C         46.27407       68.06282       98.45771
O         47.18032       68.45815       97.74136
O         45.59293       68.94173       99.23008
H         45.18422       64.03432       96.46301
H         46.90593       66.48236       95.90220
H         47.97105       65.90888       98.14538
H         46.76144       64.59767       98.31770
H         46.06853       66.38175       99.68989
H         44.91188       66.38280       98.31789
N         47.55826       63.42767       95.10584
C         48.59569       62.59152       94.54324
H         49.28263       62.24512       95.34399
H         48.14132       61.70215       94.05583
H         49.16692       63.16051       93.77955
H         46.58691       63.11438       94.97401
Ca        46.03787       71.17206       99.45682
O         44.21646       73.51404       98.00117
H         43.77917       73.85037       97.17952
H         43.46715       73.30672       98.61327
O         44.24418       73.40957      101.27450
H         44.23248       74.39918      101.27490
H         43.35886       73.15514      101.63376
O         46.22101       71.39235       96.41418
H         45.53916       70.70745       96.63107
H         47.03306       71.09909       96.89941

Ca 1.0



