%chk=apoCaM-CA-Ng.loop2.water2.frame906.chk
%nprocshared=20
%mem=10GB
%nosave
#b3lyp/svp scf=(tight,noincore,xqc) Test 
#IOP(5/87=12) Density=Current Pop=(MK,readradii) iop(6/33=2) iop(6/42=6)

apoCaM-CA-Ng.loop2.water2.frame906 

   -2  1 
C        106.86152        4.96370       41.94868
C        107.28499        6.16532       42.73910
O        108.24872        6.81964       42.36591
H        105.82417        5.10923       41.58096
H        107.53185        4.80968       41.07616
H        106.89801        4.05946       42.59170
N        106.60204        6.51467       43.86564
C        106.97295        7.66215       44.68994
C        106.68155        9.00548       43.99842
O        107.01083       10.03468       44.57098
C        106.24731        7.56810       46.05224
C        106.78797        8.54103       47.06422
O        105.97875        9.46162       47.62023
O        107.96045        8.48553       47.40216
H        105.82356        5.90742       44.16823
H        108.06375        7.57784       44.89764
H        106.40033        6.55046       46.47532
H        105.15549        7.72098       45.90763
N        106.08339        9.07489       42.76897
C        105.79974       10.31546       42.05142
C        104.32726       10.33060       41.64972
O        103.91306        9.37976       41.00021
C        106.67562       10.36288       40.79757
H        105.82319        8.20643       42.28400
H        106.07201       11.19714       42.66335
H        107.74722       10.34273       41.09107
H        106.47453        9.48984       40.14023
H        106.48488       11.29488       40.22576
N        103.43707       11.31331       41.98259
C        103.75205       12.54777       42.69924
C        102.50616       13.16334       43.33714
O        101.40090       12.68917       43.11677
C        104.47260       13.55190       41.76279
C        103.65750       13.91397       40.54508
O        103.31685       15.19599       40.31717
O        103.33422       13.05624       39.73829
H        102.46066       11.15417       41.69086
H        104.39729       12.29527       43.56675
H        105.43081       13.12172       41.41010
H        104.71584       14.47875       42.32503
N        102.63966       14.17914       44.23491
C        101.52878       14.71375       45.00744
C        101.53928       16.21751       44.99042
O        101.82500       16.79531       46.02995
H        103.58669       14.52402       44.45758
H        101.69157       14.39093       46.05968
H        100.54136       14.31860       44.69172
N        101.28251       16.96553       43.88464
C        100.83708       16.46930       42.58570
C         99.36137       16.08511       42.67434
O         98.57334       16.91068       43.11594
C        101.05250       17.61468       41.57036
C        100.79808       17.31026       40.12335
N        100.95117       18.30630       39.22175
O        100.47549       16.19297       39.75340
H        101.40163       17.98687       43.99143
H        101.47529       15.62233       42.25673
H        102.11827       17.92912       41.63064
H        100.41583       18.47823       41.85898
H        101.23812       19.24729       39.52535
H        100.78058       18.15800       38.22388
N         98.90909       14.86713       42.25420
C         97.51477       14.44284       42.36622
C         96.78731       14.38566       41.03360
O         95.62557       14.00392       41.03000
H         99.57517       14.21166       41.82444
H         96.93285       15.14337       43.00439
H         97.48726       13.44975       42.86308
N         97.36564       14.83059       39.88228
C         96.66257       14.97283       38.61189
C         97.42861       14.31042       37.48552
O         98.59148       14.63200       37.29502
C         96.51480       16.47761       38.27295
C         95.59862       17.20090       39.25984
O         97.77576       17.10342       38.27194
H         98.32765       15.17922       39.91762
H         95.63673       14.54438       38.65888
H         96.03656       16.55271       37.26506
H         97.82659       17.67571       37.46376
H         94.58842       16.73886       39.25007
H         96.01055       17.15781       40.28970
H         95.49958       18.26611       38.96109
N         96.80852       13.44949       36.62787
C         97.45098       12.98254       35.39918
C         97.75860       14.20664       34.54493
O         96.85245       14.97398       34.24869
C         96.55034       11.97231       34.62194
C         97.20773       11.58396       33.26444
C         96.30925       10.71450       35.48403
C         96.34314       10.67370       32.39033
H         95.82612       13.19570       36.80962
H         98.39455       12.44891       35.65476
H         95.57227       12.45992       34.41182
H         98.19123       11.09521       33.44065
H         97.38362       12.50140       32.66413
H         97.26995       10.19184       35.68354
H         95.84335       10.96908       36.45657
H         95.61570       10.01007       34.98430
H         96.85858       10.49954       31.42188
H         96.18047        9.68495       32.86275
H         95.36322       11.15563       32.18694
N         99.02952       14.44001       34.12039
C         99.44206       15.60573       33.35576
C         99.89198       15.23691       31.95341
O        100.17304       16.15903       31.20020
C        100.61312       16.29962       34.08672
C        100.19793       16.98160       35.35956
O         99.46651       17.95660       35.30700
O        100.66883       16.57686       36.55515
H         99.74967       13.74643       34.34248
H         98.59660       16.31765       33.22903
H        101.06445       17.08783       33.44555
H        101.40638       15.54472       34.28796
N        100.01777       13.94389       31.51915
C        100.48446       13.65018       30.16910
C        100.84776       12.16918       30.03642
O         99.99140       11.34029       30.30969
C         99.40081       14.02964       29.12409
C         99.97817       14.11993       27.73121
C         99.60699       13.21538       26.72300
C        100.89485       15.14466       27.42905
C        100.15738       13.32867       25.43991
C        101.43702       15.25682       26.14715
C        101.07103       14.34777       25.15314
H         99.84254       13.16298       32.16542
H        101.38201       14.27678       30.01311
H         98.95685       15.02445       29.33734
H         98.56816       13.29401       29.18205
H         98.90073       12.42152       26.92885
H        101.18564       15.86141       28.18740
H         99.87572       12.62744       24.66542
H        102.13993       16.05005       25.92571
H        101.49397       14.43608       24.16058
N        102.08031       11.74506       29.60348
C        102.41957       10.34156       29.37804
C        102.51840        9.44888       30.60834
O        102.81216        8.27459       30.42474
C        103.81365       10.40934       28.73511
C        103.76714       11.73142       28.00865
C        103.10526       12.61280       29.05687
H        101.67656        9.93486       28.65555
H        104.58550       10.52663       29.53313
H        104.08048        9.52619       28.11669
H        104.74912       12.10581       27.65001
H        103.07591       11.62681       27.14059
H        103.82053       12.87542       29.86781
H        102.73250       13.51812       28.54373
N        102.38226        9.91805       31.88447
C        102.69315        9.07801       33.04614
C        101.77952        7.87442       33.22165
O        102.08031        7.05083       34.07577
C        102.72568        9.90321       34.34559
C        101.34782       10.41440       34.77278
C        101.50869       11.33528       35.93416
O        101.22668       12.62001       35.71795
O        101.92325       10.95383       37.01699
H        102.17211       10.91611       32.02943
H        103.72822        8.69999       32.89103
H        103.41041       10.76739       34.18693
H        103.14250        9.28805       35.17314
H        100.65020        9.58847       35.02894
H        100.89779       10.99205       33.93540
N        100.64636        7.70064       32.48681
C         99.79713        6.54524       32.67546
H         98.92639        6.59664       31.98941
H        100.37044        5.61837       32.45875
H         99.42721        6.51336       33.72288
H        100.36219        8.39914       31.78597
Ca       101.36838       14.48571       36.89548
O        100.31571       12.35410       39.74807
H        100.62682       11.46367       39.44896
H        100.33171       12.29366       40.73488
O        104.37303       14.06853       36.51716
H        104.61230       15.01308       36.34057
H        104.23205       13.67581       35.61907

Ca 1.0



