%chk=apoCaM-CA-Ng.loop1.water3.frame1397.chk
%nprocshared=20
%mem=10GB
%nosave
#b3lyp/svp scf=(tight,noincore,xqc) Test 
#IOP(5/87=12) Density=Current Pop=(MK,readradii) iop(6/33=2) iop(6/42=6)

apoCaM-CA-Ng.loop1.water3.frame1397 

   0  1 
C         38.12440       94.87118       64.51170
C         37.91235       94.78738       63.03121
O         38.60106       94.01847       62.37790
H         38.39763       95.90841       64.79288
H         37.18941       94.57943       65.03477
H         38.93740       94.18366       64.83161
N         36.94282       95.53654       62.43356
C         36.64572       95.43424       61.01005
C         37.81997       95.86346       60.13758
O         38.13946       97.04074       60.05439
C         35.35913       96.19120       60.61175
C         35.40145       97.68138       60.83540
O         35.28796       98.44163       59.88733
O         35.52707       98.18977       62.07542
H         36.36240       96.13648       63.03521
H         36.42620       94.36003       60.81103
H         34.49879       95.77180       61.17603
H         35.18462       96.00582       59.53118
N         38.50129       94.91194       59.45044
C         39.60746       95.16691       58.53156
C         39.11737       95.47614       57.11504
O         39.54085       96.49784       56.59341
C         40.62405       94.00338       58.53873
C         41.13326       93.76513       59.96845
C         42.22581       92.70263       60.05408
C         42.60298       92.48502       61.52789
N         43.67070       91.49910       61.66489
H         38.26775       93.93798       59.68341
H         40.19044       96.04330       58.89882
H         41.48193       94.28105       57.88595
H         40.17939       93.06711       58.14160
H         40.28512       93.43173       60.59689
H         41.53318       94.71776       60.38157
H         43.11482       93.04171       59.47865
H         41.85766       91.74643       59.62243
H         41.70643       92.13373       62.08804
H         42.93628       93.44804       61.97611
H         43.88116       91.36943       62.68107
H         43.36914       90.58348       61.26009
H         44.53265       91.83888       61.18025
N         38.22634       94.71228       56.40288
C         37.51727       93.53810       56.90423
C         36.04903       93.90150       57.14436
O         35.62294       94.98611       56.76816
C         37.72109       92.32028       55.99081
C         37.07938       92.53950       54.66990
O         35.75397       92.74715       54.61962
O         37.74786       92.56086       53.65054
H         37.96236       95.04822       55.46210
H         37.93369       93.20956       57.84708
H         37.27121       91.41896       56.45267
H         38.81111       92.13136       55.86814
N         35.23704       93.06175       57.84028
C         33.87864       93.41168       58.23659
C         32.83548       93.31498       57.14255
O         33.13466       92.94289       56.01843
H         35.64727       92.19818       58.22004
H         33.86841       94.42596       58.67928
H         33.55514       92.70168       59.02732
N         31.54684       93.64099       57.45269
C         30.38445       93.44223       56.57929
C         29.21218       92.87773       57.40821
O         29.31809       92.88115       58.62720
C         29.98953       94.81171       55.98410
C         31.07358       95.35997       55.10150
O         31.41501       94.75101       54.10012
O         31.66292       96.53244       55.40272
H         31.38429       94.06273       58.38072
H         30.63888       92.73044       55.76455
H         29.78716       95.52581       56.81239
H         29.07376       94.75156       55.37233
N         28.03179       92.41635       56.88646
C         27.73878       92.15441       55.48952
C         28.38684       90.86575       55.06912
O         28.09104       89.83343       55.65565
H         27.28423       92.16566       57.55286
H         28.00556       93.00751       54.84348
H         26.64500       91.99627       55.37051
N         29.30388       90.85617       54.07275
C         30.02841       89.66725       53.65494
C         31.44200       89.80162       54.15967
O         32.03706       90.85519       53.98736
C         29.92668       89.47741       52.12114
C         30.79861       88.31834       51.61943
O         30.29524       90.65072       51.44185
H         29.56055       91.75616       53.63701
H         29.60078       88.74541       54.10933
H         28.86712       89.21457       51.88308
H         29.46166       91.07901       51.11280
H         30.53172       87.36996       52.13120
H         30.65765       88.18730       50.52621
H         31.87360       88.52669       51.80256
N         32.03328       88.75018       54.80068
C         33.37510       88.74902       55.36465
C         34.37020       89.22060       54.31809
O         34.56751       90.41818       54.19693
C         33.45534       89.59259       56.67416
C         32.32890       89.28332       57.69380
C         34.84036       89.46685       57.33289
C         32.34408       87.86728       58.26821
H         31.51065       87.86298       54.86912
H         33.61299       87.69871       55.64279
H         33.30791       90.64652       56.40177
H         31.34227       89.46298       57.21470
H         32.41031       90.00071       58.54120
H         34.88256       90.07719       58.25771
H         35.06629       88.41443       57.59850
H         35.63314       89.81892       56.64489
H         32.22716       87.11338       57.46441
H         33.28211       87.67596       58.82818
H         31.49841       87.75677       58.97927
N         35.02948       88.34001       53.51974
C         36.00654       88.78413       52.52595
C         35.68066       88.33128       51.11196
O         36.46107       88.67254       50.23022
C         37.41989       88.32221       52.95006
C         37.57889       86.79888       52.94554
O         37.71103       88.80145       54.23747
H         34.85575       87.33316       53.64456
H         36.04416       89.89513       52.48428
H         38.16980       88.72877       52.23135
H         37.83326       89.78301       54.15815
H         37.38894       86.38866       51.93128
H         38.61642       86.53618       53.23793
H         36.88518       86.31990       53.66605
N         34.59922       87.55698       50.79521
C         34.38412       87.06334       49.43477
C         34.13862       88.25539       48.51232
O         33.06708       88.83766       48.59315
C         33.21714       86.03712       49.39797
C         33.13699       85.29590       48.06288
O         33.40142       85.08219       50.41506
H         33.94829       87.26690       51.54034
H         35.31563       86.52683       49.14436
H         32.26226       86.58913       49.57033
H         32.50904       84.89609       50.81217
H         32.99159       85.99993       47.21908
H         34.06983       84.71325       47.89930
H         32.28431       84.58276       48.08540
N         35.13800       88.73431       47.70464
C         35.09183       89.99272       46.94817
C         34.85942       91.20402       47.84164
O         33.87776       91.23585       48.56697
C         34.04333       90.01286       45.82177
C         34.38896       89.07001       44.66328
C         33.47565       89.36706       43.46032
C         33.86335       88.59181       42.19292
N         33.66105       87.15157       42.33677
H         36.02957       88.21606       47.68041
H         36.07849       90.13911       46.45351
H         34.06285       91.04572       45.40303
H         33.01777       89.82293       46.20303
H         34.30516       88.01522       44.99843
H         35.43743       89.26538       44.34570
H         33.57492       90.44709       43.20877
H         32.41352       89.17148       43.72244
H         34.92458       88.80375       41.93165
H         33.22917       88.95950       41.35555
H         32.65819       86.95434       42.55821
H         33.90467       86.68713       41.43232
H         34.27780       86.76299       43.08426
N         35.65763       92.30883       47.74435
C         35.34625       93.52191       48.49092
C         35.64689       93.35109       49.98425
O         34.93720       94.33917       50.66856
C         36.02250       94.78178       47.91979
C         35.45796       95.13033       46.53992
C         36.05526       96.40839       46.03446
O         37.25575       96.48871       45.82990
O         35.26674       97.47665       45.80892
H         36.42624       92.31745       47.05726
H         34.24840       93.69629       48.40487
H         37.12461       94.65655       47.87782
H         35.79768       95.63911       48.59359
H         34.35610       95.26198       46.62827
H         35.65777       94.31286       45.81612
N         37.06981       93.45052       50.35426
C         37.93273       92.45489       49.71962
H         38.90242       92.41324       50.26331
H         37.47374       91.44399       49.73679
H         38.16836       92.76197       48.68200
H         37.11186       93.26624       51.38021
Ca        34.89644       93.53926       52.75245
O         31.96103       94.17409       51.21469
H         32.29699       95.10352       51.15174
H         31.67889       93.94941       50.29294
O         33.90979       96.27062       53.22028
H         34.30067       97.17872       53.18386
H         34.11923       95.94449       54.13179
O         33.68936       90.91478       51.40774
H         33.72828       91.84539       51.08291
H         32.72242       90.73722       51.46877

Ca 1.0



