%chk=apoCaM-CA-Ng.loop1.water6.frame674.chk
%nprocshared=20
%mem=10GB
%nosave
#b3lyp/svp scf=(tight,noincore,xqc) Test 
#IOP(5/87=12) Density=Current Pop=(MK,readradii) iop(6/33=2) iop(6/42=6)

apoCaM-CA-Ng.loop1.water6.frame674 

   0  1 
C        -11.14728       33.63359       63.99320
C        -12.44181       33.50669       63.25014
O        -12.67222       34.25529       62.31084
H        -10.54065       34.47102       63.58821
H        -11.34612       33.81980       65.06938
H        -10.57337       32.68923       63.88597
N        -13.35451       32.57648       63.63915
C        -14.61999       32.37672       62.93870
C        -15.63255       31.59765       63.77440
O        -15.32258       31.17038       64.87712
C        -14.37708       31.67933       61.57651
C        -13.72362       30.32424       61.68607
O        -13.14953       29.89359       62.82990
O        -13.69337       29.60216       60.70221
H        -13.13315       32.00997       64.47201
H        -15.09257       33.36920       62.76912
H        -13.75952       32.30787       60.90197
H        -15.35622       31.54392       61.07165
N        -16.89793       31.40850       63.29782
C        -17.94080       30.69827       64.02454
C        -18.32672       29.46541       63.21472
O        -18.89815       29.60180       62.14209
C        -19.12923       31.65853       64.26410
C        -18.75112       32.81814       65.20904
C        -19.86764       33.87628       65.27332
C        -19.54988       35.03925       66.23306
N        -19.61290       34.63191       67.63788
H        -17.14591       31.79113       62.37280
H        -17.56642       30.35934       65.01329
H        -19.98316       31.12109       64.71769
H        -19.45849       32.06299       63.28121
H        -17.83160       33.32544       64.84501
H        -18.54374       32.39177       66.21233
H        -20.83806       33.41851       65.56268
H        -19.97722       34.30243       64.25163
H        -20.30540       35.84043       66.07324
H        -18.54945       35.46799       66.00016
H        -18.91143       33.88957       67.84538
H        -19.40848       35.45990       68.24313
H        -20.57388       34.28507       67.86374
N        -17.94061       28.22570       63.64115
C        -18.11078       26.99195       62.87199
C        -18.60476       25.83140       63.73786
O        -17.83582       24.91120       63.98319
C        -16.78871       26.61449       62.13776
C        -15.54915       26.47250       62.98572
O        -14.37915       26.14080       62.41033
O        -15.55628       26.74733       64.17394
H        -17.39053       28.17610       64.50657
H        -18.84113       27.13047       62.04673
H        -16.56944       27.40208       61.38522
H        -16.95179       25.66174       61.58828
N        -19.88819       25.71010       64.17566
C        -20.95869       26.66265       63.96372
C        -20.80829       27.86696       64.84691
O        -21.15384       28.95660       64.41628
H        -20.14047       24.84302       64.67676
H        -21.90616       26.17811       64.28199
H        -21.07785       26.92149       62.88843
N        -20.32134       27.73345       66.11547
C        -20.15631       28.84449       67.04329
C        -18.68598       29.05002       67.35328
O        -17.85825       28.26058       66.91605
C        -20.93955       28.55294       68.33405
C        -22.40301       28.35750       68.05548
O        -22.94167       27.29430       68.31967
O        -23.12785       29.35517       67.51469
H        -20.02963       26.79877       66.44118
H        -20.53415       29.78660       66.59086
H        -20.82809       29.39225       69.05165
H        -20.52511       27.63365       68.80691
N        -18.27602       30.12675       68.07656
C        -16.86008       30.38366       68.29672
C        -16.58354       31.69085       69.00066
O        -17.50518       32.36977       69.43401
H        -18.98821       30.79159       68.41523
H        -16.37088       30.44721       67.30022
H        -16.39882       29.54975       68.86753
N        -15.29954       32.14178       69.07124
C        -14.95255       33.47062       69.56468
C        -13.73397       33.45144       70.47607
O        -13.09110       32.42039       70.62409
C        -14.70929       34.40872       68.34845
C        -13.55630       33.94223       67.44643
O        -15.87411       34.48560       67.56749
H        -14.56087       31.56816       68.63445
H        -15.79792       33.89183       70.15269
H        -14.44493       35.42974       68.70499
H        -16.50058       35.09141       68.04305
H        -13.77124       32.94942       66.99844
H        -13.41751       34.66307       66.61369
H        -12.60632       33.88220       68.01609
N        -13.34724       34.60326       71.09709
C        -12.08797       34.75501       71.82227
C        -12.25571       34.48569       73.31004
O        -11.25154       34.24564       73.96651
C        -11.53138       36.20222       71.58167
C        -11.36099       36.54067       70.07530
C        -10.23000       36.50659       72.34927
C        -10.32506       35.69154       69.33700
H        -13.93713       35.44111       70.97371
H        -11.36055       34.00495       71.44172
H        -12.29280       36.91566       71.97302
H        -11.06526       37.60879       69.98152
H        -12.33388       36.43374       69.55264
H         -9.90108       37.54697       72.14009
H        -10.38885       36.45117       73.44485
H         -9.42005       35.80337       72.06975
H        -10.27949       36.01725       68.27653
H         -9.31592       35.82294       69.77692
H        -10.60181       34.61875       69.35670
N        -13.46789       34.57453       73.92756
C        -13.62433       34.48958       75.37977
C        -14.06902       35.84587       75.91246
O        -14.29387       36.74648       75.11358
C        -14.54061       33.30788       75.76842
C        -15.94946       33.39733       75.17316
O        -13.93350       32.11657       75.33453
H        -14.30166       34.79744       73.36560
H        -12.64145       34.29710       75.86375
H        -14.62199       33.29970       76.88055
H        -14.22523       31.39484       75.95065
H        -15.91698       33.36281       74.06410
H        -16.54966       32.52856       75.51775
H        -16.45438       34.32925       75.50007
N        -14.12929       36.09383       77.25601
C        -14.35726       37.43546       77.79294
C        -13.09606       37.89423       78.51168
O        -12.51391       38.88383       78.08917
C        -15.67110       37.53401       78.61933
C        -15.69223       36.79316       79.95720
O        -16.74029       37.06134       77.83986
H        -13.92974       35.32672       77.91483
H        -14.51633       38.15234       76.95635
H        -15.84720       38.60651       78.87442
H        -16.97229       37.77962       77.19504
H        -14.96292       37.23693       80.66498
H        -16.69128       36.91481       80.42802
H        -15.49471       35.71031       79.81975
N        -12.58792       37.19944       79.57199
C        -11.33966       37.54048       80.24875
C        -10.40487       36.33338       80.22695
O        -10.84686       35.23467       79.91656
C        -11.68506       38.00161       81.68934
C        -10.46905       38.38773       82.55062
C        -10.82827       38.99098       83.91746
C        -11.61243       38.02952       84.82453
N        -11.81122       38.61434       86.15066
H        -13.09299       36.37054       79.91425
H        -10.83330       38.37717       79.71924
H        -12.25081       37.19265       82.19842
H        -12.34820       38.89078       81.60318
H         -9.86837       39.14513       82.00153
H         -9.84686       37.49002       82.73792
H        -11.40726       39.92909       83.77540
H         -9.87139       39.24808       84.42340
H        -11.05090       37.07490       84.93124
H        -12.60425       37.80883       84.37465
H        -12.36350       37.95011       86.73969
H        -10.88617       38.78104       86.61016
H        -12.33406       39.51690       86.07431
N         -9.08588       36.46724       80.54833
C         -8.17486       35.33077       80.64456
C         -8.07245       34.56361       79.32913
O         -8.38596       33.38165       79.35212
C         -6.77507       35.73851       81.17097
C         -6.83496       36.30563       82.60405
C         -5.48106       36.66232       83.15927
O         -5.39219       37.15513       84.40917
O         -4.46353       36.51642       82.49937
H         -8.72515       37.40974       80.75360
H         -8.58784       34.62910       81.40606
H         -6.28759       36.47798       80.50647
H         -6.13623       34.82778       81.19465
H         -7.29420       35.54766       83.27490
H         -7.45663       37.22274       82.62911
N         -7.65625       35.09292       78.14038
C         -7.28917       36.47122       77.89274
H         -6.23222       36.51219       77.55555
H         -7.93578       36.87669       77.08708
H         -7.41013       37.12709       78.76855
H         -7.60612       34.46019       77.32645
Ca       -12.85467       27.67568       62.94499
O        -10.77601       26.81451       65.95928
H        -10.71364       25.99774       66.51534
H        -10.20224       27.47521       66.42262
O        -13.42442       25.15292       65.60166
H        -13.90393       25.71559       66.26022
H        -14.13379       24.61087       65.17318
O        -11.49625       24.66639       62.95716
H        -11.56163       24.55714       61.97555
H        -12.21796       24.09174       63.31606
O         -9.93319       28.85537       63.55497
H         -9.71087       29.34259       64.38786
H         -9.40625       28.01859       63.60823
O        -13.21178       28.66934       66.05442
H        -13.44073       29.53082       65.62556
H        -13.92752       28.52659       66.72327
O        -11.42573       26.76409       60.21452
H        -12.31280       26.32427       60.19582
H        -11.62720       27.72275       60.35717

Ca 1.0



