%chk=apoCaM-CA-Ng.loop4.water3.frame465.chk
%nprocshared=20
%mem=10GB
%nosave
#b3lyp/svp scf=(tight,noincore,xqc) Test 
#IOP(5/87=12) Density=Current Pop=(MK,readradii) iop(6/33=2) iop(6/42=6)

apoCaM-CA-Ng.loop4.water3.frame465 

   -3  1 
C         45.31045       45.61213      101.68762
C         45.28820       44.63497      102.82429
O         45.16674       43.44897      102.56546
H         46.16314       45.37599      101.01628
H         44.36376       45.53422      101.11316
H         45.42249       46.65489      102.05061
N         45.42671       45.06172      104.11298
C         45.44112       44.18395      105.27689
C         46.57142       43.17063      105.18565
O         46.33749       42.04318      104.79125
C         44.03194       43.65201      105.66377
C         43.30115       42.80199      104.66252
O         43.74160       41.57153      104.36074
O         42.25360       43.19656      104.17488
H         45.56351       46.06927      104.28473
H         45.68746       44.81288      106.16254
H         43.40095       44.54632      105.86484
H         44.10227       43.07912      106.61434
N         47.84514       43.56862      105.49625
C         49.07645       42.76618      105.51723
C         49.10738       41.78093      106.68551
O         49.95607       41.93007      107.55415
C         49.40903       42.07026      104.16456
C         50.79860       41.36349      104.19954
C         49.32714       43.04383      102.97760
C         52.00317       42.28932      104.43515
H         47.96629       44.56236      105.74723
H         49.89056       43.49781      105.70945
H         48.65326       41.28252      103.97883
H         50.95574       40.83698      103.23454
H         50.80187       40.58857      104.99614
H         48.29970       43.45069      102.87924
H         50.02835       43.89396      103.09851
H         49.56530       42.50848      102.03293
H         51.94913       42.79241      105.42174
H         52.93699       41.68931      104.42726
H         52.08653       43.05489      103.63738
N         48.21840       40.75578      106.77880
C         48.17061       39.81830      107.88564
C         49.28186       38.76442      107.82420
O         49.99642       38.66952      108.81176
C         46.76654       39.17657      107.96231
C         46.53603       38.32349      109.18600
O         47.49194       38.15808      110.12145
O         45.45028       37.79007      109.34542
H         47.49463       40.65931      106.06787
H         48.25713       40.40360      108.83135
H         46.57327       38.57974      107.05506
H         46.01169       39.99372      107.99032
N         49.49876       37.88351      106.79131
C         48.91255       37.90647      105.45673
C         47.79651       36.89616      105.27236
O         47.32943       36.36489      106.26976
H         50.22353       37.16281      106.93433
H         49.73103       37.71651      104.73064
H         48.52485       38.90174      105.22882
N         47.26053       36.56863      104.05133
C         47.82010       36.89277      102.73013
C         48.03499       38.37842      102.47026
O         47.47188       39.18805      103.18769
C         46.94126       36.23863      101.61960
C         45.53576       36.77378      101.58116
O         45.32718       37.93821      101.28667
O         44.49512       35.95585      101.82682
H         46.44757       35.93214      104.07046
H         48.82711       36.42347      102.71759
H         46.90332       35.14503      101.81183
H         47.35197       36.36960      100.60241
N         48.86653       38.84472      101.48568
C         49.57258       38.02591      100.50943
C         51.06459       38.09869      100.64770
O         51.57689       38.76329      101.53771
H         49.01343       39.86193      101.41809
H         49.27393       38.34962       99.48957
H         49.34858       36.95533      100.60987
N         51.82797       37.37571       99.78047
C         53.27351       37.24467       99.89799
C         54.02913       38.31359       99.11979
O         55.23070       38.41275       99.32538
C         53.72335       35.77196       99.68293
C         53.34614       35.10466       98.34340
C         54.05015       35.69646       97.16320
N         55.39361       35.60801       97.05872
O         53.40334       36.22431       96.27360
H         51.34057       36.86965       99.02884
H         53.54831       37.46295      100.95490
H         53.22876       35.16661      100.47389
H         54.81902       35.68945       99.85002
H         52.24927       35.12892       98.18843
H         53.62609       34.02971       98.38635
H         55.95306       35.14268       97.78681
H         55.87494       35.97809       96.23370
N         53.39599       39.21253       98.30240
C         54.05445       40.42087       97.79215
C         54.18860       40.47599       96.27727
O         54.76702       41.44798       95.80775
C         53.31491       41.69873       98.29939
C         53.34397       41.80486       99.82990
C         51.86313       41.79059       97.79772
H         52.39557       39.08568       98.09981
H         55.09760       40.47537       98.17445
H         53.85806       42.58801       97.90763
H         54.39354       41.81174      100.19221
H         52.86372       42.75407      100.15396
H         52.80246       40.95848      100.30075
H         51.23203       40.97730       98.21157
H         51.42525       42.75876       98.11782
H         51.82080       41.74780       96.68904
N         53.71947       39.50396       95.44445
C         53.87585       39.58073       93.99287
C         52.54798       39.54318       93.25200
O         52.59634       39.57983       92.03030
C         54.77571       38.42758       93.49093
C         56.18304       38.49204       94.03354
N         56.97006       39.57103       93.81751
O         56.63269       37.54312       94.65147
H         53.25602       38.67577       95.84131
H         54.35744       40.53433       93.69035
H         54.86023       38.48106       92.38385
H         54.30990       37.45112       93.75151
H         56.62801       40.38234       93.28484
H         57.93375       39.59106       94.18367
N         51.33117       39.48178       93.87730
C         50.09199       39.32188       93.11283
C         48.83844       39.49978       93.95426
O         48.76655       38.98791       95.06006
C         50.07753       37.96042       92.36095
C         50.46376       36.76549       93.21330
C         51.70757       36.14341       92.99500
C         49.61813       36.25337       94.21293
C         52.10540       35.05251       93.76918
C         50.01897       35.15912       94.98842
C         51.26341       34.55850       94.77327
O         51.64035       33.51185       95.53517
H         51.27971       39.52383       94.90519
H         50.04677       40.11918       92.33806
H         50.81684       38.04122       91.53895
H         49.10266       37.78875       91.85557
H         52.38143       36.51034       92.23068
H         48.64541       36.68485       94.39271
H         53.07179       34.59749       93.59105
H         49.36079       34.77713       95.75857
H         52.49932       33.07909       95.42449
N         47.76431       40.14696       93.39919
C         46.42913       40.28229       93.97735
C         46.32124       41.40787       94.99586
O         45.43575       42.23714       94.82728
C         45.83797       38.92438       94.41091
C         44.33288       39.02600       94.70890
C         43.73079       37.66410       94.90541
O         44.16577       36.86393       95.89665
O         42.84443       37.27428       94.16092
H         47.86419       40.49167       92.43204
H         45.77172       40.60678       93.13590
H         46.36722       38.50394       95.29076
H         45.96636       38.22617       93.55289
H         43.81905       39.51476       93.85070
H         44.16333       39.64345       95.61640
N         47.19177       41.55967       96.03622
C         47.09704       42.68671       96.96485
C         47.27102       44.03915       96.27313
O         47.04466       45.04963       96.92611
C         48.16798       42.60311       98.07619
C         48.18104       41.32431       98.92380
C         46.91184       41.10755       99.69123
O         45.87094       40.84446       99.11202
O         46.93305       41.15403      101.03422
H         47.93888       40.87288       96.16820
H         46.08440       42.66550       97.42174
H         48.04415       43.46543       98.76939
H         49.16312       42.69462       97.59477
H         49.01893       41.43294       99.64567
H         48.39368       40.42598       98.30936
N         47.68855       44.15445       94.97878
C         47.84515       45.44104       94.33785
H         48.59417       46.04987       94.88700
H         48.19539       45.30221       93.29287
H         46.87135       45.97493       94.31836
H         47.92102       43.32134       94.42171
Ca        45.11739       40.57962      102.22219
O         43.18704       41.87430      100.51441
H         42.64288       42.37403       99.85700
H         43.33181       40.98873      100.09525
O         42.43111       39.07123      102.46228
H         42.08742       39.61801      103.21263
H         41.97650       39.43594      101.66202
O         44.87803       38.82132      104.90606
H         44.39042       39.25576      105.65014
H         44.84516       37.85580      105.12068

Ca 1.0



