%chk=apoCaM-CA-Ng.loop4.water3.frame464.chk
%nprocshared=20
%mem=10GB
%nosave
#b3lyp/svp scf=(tight,noincore,xqc) Test 
#IOP(5/87=12) Density=Current Pop=(MK,readradii) iop(6/33=2) iop(6/42=6)

apoCaM-CA-Ng.loop4.water3.frame464 

   -3  1 
C         41.81320       42.78793       98.94530
C         41.86583       41.66418       99.93316
O         41.72169       40.52074       99.53172
H         42.78481       43.32485       98.94887
H         41.62605       42.40004       97.92036
H         41.00020       43.49103       99.21951
N         42.10557       41.92246      101.25054
C         42.23429       40.89585      102.27650
C         43.35552       39.92001      101.96706
O         43.10727       38.89474      101.36564
C         40.88404       40.28552      102.76790
C         39.73984       40.09349      101.78607
O         39.72248       39.18904      100.78525
O         38.73563       40.77144      101.94209
H         42.26164       42.90178      101.53475
H         42.59737       41.40558      103.19907
H         40.48542       41.03094      103.49553
H         41.06671       39.36379      103.36105
N         44.63485       40.22443      102.35307
C         45.83717       39.39279      102.22767
C         45.82532       38.24181      103.22880
O         46.66423       38.24232      104.11987
C         46.14404       38.92987      100.77229
C         47.46080       38.10286      100.68150
C         46.18519       40.12261       99.80142
C         48.73432       38.83652      101.12375
H         44.78451       41.14816      102.78824
H         46.68079       40.04930      102.53648
H         45.33101       38.25921      100.42879
H         47.60187       37.76929       99.63129
H         47.36491       37.18830      101.30430
H         46.96331       40.85681      100.09551
H         46.39696       39.76785       98.76968
H         45.20605       40.64463       99.78345
H         48.92138       39.73346      100.49985
H         48.68268       39.13314      102.19103
H         49.60494       38.15648      101.01344
N         44.91000       37.23674      103.16646
C         44.84809       36.15826      104.13886
C         45.99929       35.16377      103.95259
O         46.73886       35.01102      104.91478
C         43.43757       35.53431      104.16904
C         42.37754       36.49518      104.65568
O         42.68284       37.76086      105.00677
O         41.22075       36.11675      104.74313
H         44.20073       37.24358      102.43080
H         44.95978       36.58989      105.16172
H         43.44204       34.66396      104.86059
H         43.13033       35.21919      103.16195
N         46.30677       34.47582      102.80496
C         45.62789       34.53498      101.51951
C         44.33714       33.73713      101.48161
O         43.97619       33.14833      102.49075
H         47.16466       33.90134      102.82606
H         46.29308       34.06880      100.76128
H         45.49656       35.59130      101.23096
N         43.58269       33.60678      100.34656
C         43.97590       34.09752       99.02380
C         44.12102       35.61598       98.96065
O         43.60260       36.28747       99.83856
C         42.97913       33.59096       97.94677
C         41.58278       34.12337       98.13358
O         41.35944       35.31894       98.03459
O         40.56540       33.27656       98.38076
H         42.72076       33.04311      100.42057
H         44.96645       33.63783       98.82636
H         42.95099       32.48070       97.99805
H         43.30728       33.86485       96.92468
N         44.85273       36.25501       97.99596
C         45.60684       35.58790       96.94597
C         47.06883       35.69140       97.25838
O         47.43738       35.33348       98.36974
H         44.94878       37.27979       98.05993
H         45.34646       36.00895       95.95106
H         45.39587       34.50829       96.89900
N         47.97873       36.09214       96.32333
C         49.40986       36.07865       96.61249
C         50.16760       37.31517       96.13234
O         51.32676       37.43397       96.50387
C         50.01187       34.71682       96.20360
C         49.94333       34.35866       94.71156
C         50.84490       35.21817       93.87926
N         52.17341       35.25954       94.13279
O         50.37879       35.86984       92.96048
H         47.65112       36.26679       95.36166
H         49.54365       36.11345       97.71720
H         49.43807       33.93399       96.74735
H         51.05786       34.64784       96.56893
H         48.89220       34.41382       94.35244
H         50.28531       33.30866       94.58960
H         52.58781       34.70169       94.89133
H         52.79987       35.85003       93.57703
N         49.58794       38.30530       95.38382
C         50.24233       39.59325       95.12708
C         50.48275       39.89858       93.65146
O         51.03848       40.95832       93.39004
C         49.42460       40.74477       95.78986
C         49.38046       40.58655       97.31681
C         47.99436       40.86362       95.23599
H         48.62592       38.18659       95.04578
H         51.25362       39.61147       95.58938
H         49.94596       41.70579       95.58121
H         50.41250       40.57062       97.72722
H         48.84271       41.44420       97.77544
H         48.86269       39.64851       97.60915
H         47.49149       41.74556       95.68628
H         48.00402       41.00041       94.13434
H         47.38690       39.96811       95.48205
N         50.13115       39.05484       92.63741
C         50.36743       39.38023       91.22971
C         49.08148       39.38774       90.41556
O         49.17102       39.63727       89.22139
C         51.33105       38.36390       90.57167
C         52.65172       38.18576       91.27086
N         53.46645       39.23185       91.53341
O         53.00715       37.06026       91.57598
H         49.68573       38.15708       92.86145
H         50.82514       40.38787       91.13001
H         51.54800       38.70441       89.53526
H         50.83484       37.37245       90.50751
H         53.19932       40.19178       91.27779
H         54.37095       39.07573       92.00388
N         47.85963       39.09135       90.95544
C         46.67621       38.91122       90.11991
C         45.38879       38.75712       90.92221
O         45.35102       38.05119       91.91758
C         46.85701       37.72861       89.12001
C         47.60015       36.50820       89.64924
C         48.81999       36.14311       89.04342
C         47.11987       35.72298       90.71267
C         49.54355       35.03716       89.49377
C         47.85139       34.61757       91.16752
C         49.06373       34.27197       90.56183
O         49.75698       33.20619       91.01190
H         47.76613       38.93950       91.96868
H         46.52899       39.82539       89.50270
H         47.44501       38.12482       88.26519
H         45.87508       37.43941       88.68681
H         49.22144       36.71717       88.21743
H         46.18608       35.94996       91.19607
H         50.47931       34.78031       89.01239
H         47.47507       34.02650       91.99295
H         50.60086       32.93863       90.61939
N         44.25487       39.35896       90.44625
C         42.89636       39.18998       90.95820
C         42.62991       39.87297       92.29431
O         41.47127       39.91428       92.68220
C         42.49788       37.69406       90.92133
C         40.99990       37.43948       91.15506
C         40.68373       35.98048       91.01552
O         41.26007       35.08369       91.83877
O         39.89419       35.60080       90.16585
H         44.33493       39.92082       89.58450
H         42.23262       39.71806       90.23500
H         43.08769       37.11969       91.66516
H         42.74441       37.31072       89.90551
H         40.40930       38.02374       90.41442
H         40.69671       37.74196       92.17573
N         43.59762       40.51227       93.01221
C         43.29043       41.28399       94.21303
C         43.45962       42.77448       93.94583
O         43.21259       43.55484       94.85517
C         44.17595       40.83518       95.39309
C         44.12717       39.33182       95.72499
C         42.76918       38.84263       96.14883
O         41.83655       38.83771       95.36302
O         42.58608       38.36091       97.39189
H         44.57066       40.52249       92.67685
H         42.22902       41.15517       94.51227
H         43.89206       41.40872       96.30408
H         45.22567       41.08730       95.14692
H         44.83811       39.16228       96.56210
H         44.47822       38.73177       94.85871
N         43.84248       43.24950       92.72062
C         43.97516       44.65690       92.41060
H         45.01800       44.86393       92.09221
H         43.28970       44.90837       91.57357
H         43.72930       45.30854       93.27379
H         44.04398       42.60441       91.94471
Ca        41.17040       37.65522      100.01867
O         38.52663       36.19389       99.07514
H         38.68634       35.58919       98.30792
H         38.00688       36.94418       98.69242
O         39.41658       39.11877       97.66903
H         38.55211       39.02243       97.19635
H         39.94890       39.72087       97.09167
O         40.91142       35.12750      101.41389
H         40.06503       34.64983      101.59843
H         40.90739       35.89041      102.04470

Ca 1.0



