%chk=apoCaM-CA-Ng.loop1.water6.frame611.chk
%nprocshared=20
%mem=10GB
%nosave
#b3lyp/svp scf=(tight,noincore,xqc) Test 
#IOP(5/87=12) Density=Current Pop=(MK,readradii) iop(6/33=2) iop(6/42=6)

apoCaM-CA-Ng.loop1.water6.frame611 

   0  1 
C         53.51793       27.99596       80.16703
C         52.62755       29.16483       79.86797
O         51.49346       28.94955       79.46475
H         54.52073       28.32596       80.51076
H         53.05760       27.38028       80.96915
H         53.63743       27.37659       79.25485
N         53.05945       30.43781       80.08923
C         52.20615       31.60620       79.90162
C         52.92103       32.74084       79.18308
O         54.12849       32.69464       78.99063
C         51.69142       32.07673       81.27849
C         52.80794       32.24792       82.27294
O         52.81415       31.52564       83.40976
O         53.73440       33.00165       82.03583
H         53.99798       30.57526       80.49607
H         51.32211       31.34202       79.28063
H         50.99700       31.30655       81.67822
H         51.12070       33.02497       81.17746
N         52.18837       33.80656       78.75151
C         52.74753       35.00415       78.14175
C         52.15555       36.22812       78.82629
O         51.57840       37.07356       78.15441
C         52.51520       34.99508       76.61156
C         51.06662       34.70523       76.17853
C         50.92728       34.78715       74.65251
C         49.52106       34.36624       74.20356
N         49.37805       34.47851       72.75224
H         51.16288       33.76852       78.86184
H         53.84659       35.04651       78.28532
H         53.16009       34.20606       76.16519
H         52.84459       35.97533       76.20935
H         50.36105       35.42599       76.64263
H         50.79685       33.67903       76.50948
H         51.66910       34.11263       74.17112
H         51.13044       35.83089       74.32523
H         48.75757       35.00739       74.69703
H         49.34242       33.31024       74.50788
H         49.49158       35.47584       72.45834
H         50.09165       33.88487       72.27008
H         48.42410       34.15125       72.47591
N         52.24343       36.37231       80.18284
C         51.63321       37.48602       80.90372
C         52.66379       38.31972       81.65694
O         53.56445       37.74577       82.23411
C         50.45585       36.99928       81.76668
C         50.62142       35.96566       82.86265
O         49.59769       35.59259       83.41290
O         51.78082       35.41595       83.29027
H         52.71940       35.63905       80.72791
H         51.15357       38.15004       80.16614
H         49.72515       36.56042       81.05039
H         49.97271       37.89198       82.22111
N         52.68396       39.68530       81.65826
C         51.67186       40.55137       81.08168
C         52.13192       41.19580       79.79580
O         51.34113       41.93768       79.23141
H         53.48307       40.15528       82.11401
H         51.41252       41.33121       81.82996
H         50.72361       40.02101       80.88659
N         53.36398       40.95200       79.24882
C         53.81115       41.56213       77.99385
C         55.17072       41.03038       77.52951
O         55.81260       40.25401       78.22562
C         53.87447       43.11235       78.13658
C         54.81143       43.56582       79.22603
O         54.33613       44.27454       80.26792
O         56.00461       43.31574       79.16412
H         53.99647       40.30029       79.73273
H         53.07851       41.29953       77.19937
H         52.86806       43.51848       78.35400
H         54.18355       43.58374       77.18194
N         55.69119       41.47742       76.35239
C         57.04712       41.20364       75.91586
C         57.32926       39.80204       75.42661
O         58.47390       39.59016       75.05042
H         55.14447       42.14243       75.78588
H         57.74909       41.46440       76.73825
H         57.27589       41.87569       75.06014
N         56.39049       38.80750       75.35619
C         56.71531       37.48655       74.80706
C         56.58158       36.39236       75.84478
O         55.97763       36.60585       76.88703
C         55.89214       37.18514       73.52910
C         54.39051       37.04191       73.78947
O         56.08826       38.20805       72.58796
H         55.42933       38.98969       75.67730
H         57.78306       37.46750       74.50132
H         56.22416       36.21192       73.09566
H         56.95800       38.02869       72.14449
H         53.96005       37.96741       74.22466
H         53.86152       36.82812       72.83663
H         54.21108       36.18931       74.47088
N         57.19671       35.19055       75.63059
C         57.17796       34.09609       76.60165
C         57.84688       34.52581       77.91500
O         57.68167       33.83242       78.90790
C         57.87548       32.80435       76.02868
C         57.38302       32.38394       74.61213
C         57.75822       31.59244       76.98064
C         55.88510       32.10303       74.50322
H         57.71564       35.07903       74.75020
H         56.10851       33.86703       76.80642
H         58.96115       33.02424       75.91527
H         57.93992       31.47389       74.29631
H         57.63709       33.15753       73.86206
H         56.69643       31.34003       77.18144
H         58.25864       30.70558       76.53633
H         58.26834       31.76747       77.94595
H         55.65124       31.80558       73.45885
H         55.58147       31.27395       75.17261
H         55.29830       33.01357       74.74198
N         58.62873       35.64663       77.99386
C         59.30091       36.07719       79.21546
C         60.80634       36.01596       79.02850
O         61.27655       35.72155       77.93722
C         58.82377       37.49321       79.64837
C         59.07235       38.59252       78.60336
O         57.46688       37.46752       80.00697
H         58.80221       36.20714       77.14923
H         59.06761       35.38118       80.05093
H         59.38460       37.78466       80.56126
H         56.93941       37.29954       79.18505
H         58.74590       39.57275       79.01129
H         60.15020       38.65774       78.34851
H         58.49074       38.40068       77.67918
N         61.62280       36.23695       80.09494
C         63.07212       36.11618       80.04701
C         63.48076       34.94868       80.92419
O         64.06875       34.00874       80.40690
C         63.74010       37.45915       80.44543
C         65.26844       37.36153       80.46077
O         63.30713       37.89599       81.70865
H         61.18932       36.45246       81.00496
H         63.41352       35.88665       79.01168
H         63.47386       38.22137       79.67369
H         62.51255       38.47406       81.56353
H         65.70544       38.35286       80.70628
H         65.60713       36.63540       81.23098
H         65.64958       37.04114       79.46849
N         63.18979       34.93273       82.25619
C         63.54840       33.83735       83.14296
C         62.30142       33.28497       83.80395
O         61.50838       34.05243       84.33359
C         64.54549       34.33225       84.20169
C         65.09197       33.15023       85.02907
C         66.15824       33.56057       86.04943
C         65.58918       34.41264       87.19233
N         66.63259       34.73450       88.16399
H         62.69818       35.73613       82.67300
H         64.06217       33.02788       82.57829
H         64.05757       35.09487       84.84422
H         65.40390       34.80949       83.67901
H         65.56700       32.43159       84.32469
H         64.27008       32.61934       85.55626
H         66.98097       34.10108       85.53233
H         66.57849       32.62996       86.49003
H         64.77827       33.84453       87.70128
H         65.16178       35.35832       86.79804
H         66.21419       35.29229       88.94278
H         67.04196       33.85633       88.55835
H         67.38413       35.29955       87.70584
N         62.10682       31.94095       83.87293
C         60.95621       31.34207       84.53651
C         59.67208       31.61652       83.76446
O         58.78025       32.19945       84.36373
C         61.17438       29.83372       84.79822
C         62.31701       29.61712       85.80794
C         62.58349       28.15748       86.02836
O         61.61236       27.35243       86.49940
O         63.68817       27.69522       85.79079
H         62.84028       31.32427       83.49147
H         60.84878       31.79804       85.54900
H         61.39639       29.28888       83.86045
H         60.24629       29.40127       85.23387
H         62.04338       30.08206       86.78088
H         63.24879       30.10139       85.44526
N         59.44704       31.25984       82.46330
C         60.38396       30.60943       81.56953
H         61.37103       30.42234       82.01428
H         59.96028       29.63957       81.23568
H         60.54270       31.25469       80.68032
H         58.52519       31.48352       82.05754
Ca        54.04385       35.41372       83.15034
O         52.63060       34.85628       85.98172
H         51.64706       34.76840       85.90698
H         52.86088       34.37336       86.81400
O         55.86113       35.28999       85.74377
H         56.64074       34.94432       86.24651
H         55.70684       36.19441       86.11574
O         56.79947       33.84362       82.86758
H         56.74524       33.31003       82.03543
H         56.32710       33.29616       83.54406
O         56.62104       37.38841       83.36088
H         56.27773       38.16857       82.85718
H         56.81761       36.71168       82.66587
O         53.65722       37.87708       85.11661
H         54.25454       38.61127       84.82534
H         53.51802       38.03674       86.08318
O         55.45267       35.39746       80.63806
H         55.59007       34.92721       79.78120
H         55.06191       36.26927       80.38128

Ca 1.0



