%chk=apoCaM-CA-Ng.loop1.water3.frame477.chk
%nprocshared=20
%mem=10GB
%nosave
#b3lyp/svp scf=(tight,noincore,xqc) Test 
#IOP(5/87=12) Density=Current Pop=(MK,readradii) iop(6/33=2) iop(6/42=6)

apoCaM-CA-Ng.loop1.water3.frame477 

   0  1 
C         62.31987       50.17892       75.78057
C         61.43873       50.36919       74.57930
O         60.42047       49.70037       74.47660
H         63.20764       50.84619       75.74283
H         61.74853       50.40919       76.70362
H         62.67464       49.12819       75.81978
N         61.76977       51.28077       73.62404
C         60.95838       51.53304       72.43674
C         61.03913       50.39997       71.41205
O         60.46916       50.56893       70.34868
C         61.41465       52.84120       71.73727
C         61.23511       54.06662       72.59707
O         60.48056       54.95682       72.23774
O         61.91959       54.20915       73.74761
H         62.62105       51.84391       73.76902
H         59.90090       51.68727       72.74053
H         60.79836       52.99188       70.82273
H         62.47724       52.75969       71.42133
N         61.73382       49.24286       71.61178
C         61.97675       48.27634       70.54369
C         61.29092       46.94568       70.78194
O         61.49043       46.38393       71.85016
C         63.49019       48.02178       70.43749
C         64.23924       49.19897       69.80746
C         65.75347       48.98006       69.93797
C         66.58184       49.99391       69.13707
N         66.53495       49.71388       67.69922
H         62.17086       49.05055       72.52223
H         61.63837       48.68386       69.59333
H         63.68439       47.14057       69.78438
H         63.88360       47.78537       71.45135
H         63.97856       50.15831       70.30579
H         63.92106       49.25679       68.74535
H         66.04449       47.95633       69.61607
H         66.00129       49.08333       71.01763
H         67.64042       49.90943       69.46734
H         66.23814       51.03083       69.34827
H         65.56282       49.78313       67.32602
H         67.13661       50.40489       67.19659
H         66.91260       48.75480       67.51531
N         60.55443       46.28880       69.82413
C         60.19913       46.74689       68.47270
C         61.40655       47.22970       67.64696
O         61.45026       48.39739       67.28481
C         59.08891       47.81560       68.50851
C         57.80405       47.39091       69.14116
O         57.65015       46.18826       69.72299
O         56.87851       48.18672       69.17030
H         60.22583       45.34085       70.06788
H         59.73912       45.89170       67.93589
H         58.84272       48.10171       67.46356
H         59.43542       48.70026       69.06413
N         62.42301       46.41888       67.26009
C         62.39927       44.98942       67.46709
C         63.56389       44.27527       66.79935
O         64.48679       44.92201       66.32538
H         63.18924       46.84882       66.71957
H         61.47180       44.62286       66.97640
H         62.37598       44.74904       68.55070
N         63.56834       42.92001       66.64387
C         62.47341       42.06272       67.08470
C         61.54144       41.75836       65.92899
O         61.87793       42.02591       64.78241
C         62.98015       40.79140       67.79538
C         63.72452       39.84118       66.88971
O         64.88866       40.19926       66.31611
O         63.28420       38.71988       66.69346
H         64.32995       42.51390       66.08272
H         61.86155       42.60000       67.83572
H         62.09961       40.25816       68.21613
H         63.63652       41.07666       68.64549
N         60.30302       41.25629       66.18369
C         59.31730       40.97493       65.15656
C         58.98548       42.19589       64.32900
O         59.10043       42.12205       63.11365
H         60.03058       41.08282       67.16355
H         58.38574       40.61883       65.64635
H         59.69115       40.16111       64.49707
N         58.57922       43.35858       64.91788
C         58.22197       44.55281       64.15522
C         59.25655       45.62872       64.41963
O         59.36937       46.07377       65.54931
C         56.80566       45.03442       64.54738
C         55.75062       43.94227       64.33684
O         56.47032       46.15897       63.77768
H         58.53829       43.40492       65.94815
H         58.22076       44.32794       63.06600
H         56.81739       45.30695       65.63017
H         55.72891       46.61895       64.25205
H         54.75185       44.32386       64.63888
H         55.71191       43.63763       63.27003
H         55.97644       43.05296       64.96269
N         60.08671       46.06200       63.42722
C         61.20901       46.96631       63.68773
C         60.80433       48.44467       63.69146
O         61.66783       49.27873       63.92736
C         62.40298       46.68520       62.71776
C         62.10724       47.11015       61.25454
C         62.82985       45.20305       62.81498
C         63.32694       46.99048       60.33526
H         59.99740       45.62571       62.49844
H         61.60953       46.73246       64.69734
H         63.25911       47.29994       63.07632
H         61.80833       48.17978       61.24576
H         61.27404       46.51551       60.82603
H         63.03536       44.92908       63.87060
H         62.03960       44.52680       62.42562
H         63.76003       45.01003       62.24480
H         63.64636       45.93559       60.21649
H         63.07099       47.37783       59.32685
H         64.17323       47.58803       60.73727
N         59.52836       48.84974       63.41432
C         59.12885       50.25895       63.28903
C         59.24333       51.09156       64.57267
O         58.98435       52.28271       64.49794
C         57.67653       50.35959       62.74553
C         56.62927       49.83185       63.74264
O         57.58751       49.64619       61.53861
H         58.82844       48.12694       63.20080
H         59.79830       50.72003       62.52860
H         57.45979       51.43545       62.54713
H         56.75656       49.94574       61.08545
H         56.80690       48.76885       63.99107
H         56.65002       50.41648       64.68396
H         55.61224       49.92719       63.30871
N         59.55793       50.53435       65.77654
C         59.62905       51.21877       67.07328
C         58.30120       51.82686       67.51129
O         57.37629       51.92808       66.71890
C         60.84446       52.17678       67.24604
C         60.79570       53.48896       66.46458
O         62.03423       51.50257       66.92517
H         59.71397       49.51965       65.80460
H         59.82304       50.41897       67.80559
H         60.87738       52.49058       68.31596
H         62.30280       50.98602       67.72957
H         60.89551       53.32155       65.37718
H         59.86167       54.04550       66.69125
H         61.65651       54.12312       66.76739
N         58.12963       52.18713       68.81581
C         56.89663       52.72329       69.36735
C         56.26593       51.71331       70.31646
O         55.11911       51.34506       70.10549
C         57.17829       54.03795       70.13473
C         57.85382       55.15113       69.31786
C         57.02457       55.60107       68.11026
C         57.66498       56.81825       67.43016
N         56.89486       57.22280       66.25499
H         58.90551       52.04969       69.46952
H         56.16047       52.93266       68.56092
H         57.84679       53.82788       70.99845
H         56.21851       54.42649       70.54135
H         58.86024       54.82026       68.97995
H         57.99176       56.01805       70.00201
H         56.00094       55.87733       68.44498
H         56.95557       54.76844       67.37892
H         58.70573       56.57573       67.12014
H         57.70278       57.66452       68.15302
H         55.91029       57.44789       66.52719
H         57.33298       58.07366       65.83409
H         56.89813       56.45392       65.54588
N         56.94919       51.25326       71.40518
C         56.37082       50.40023       72.43886
C         56.38682       51.18357       73.73226
O         57.45651       51.55419       74.19863
C         57.16467       49.07893       72.56235
C         56.76868       48.19650       73.76811
C         55.31677       47.78015       73.83291
O         54.63137       48.15230       74.77178
O         54.77725       46.93604       72.92860
H         57.91876       51.57018       71.54452
H         55.31935       50.13598       72.19239
H         58.24634       49.31355       72.67435
H         57.04898       48.50887       71.62611
H         57.01624       48.75939       74.69413
H         57.39796       47.28047       73.76919
N         55.22063       51.48728       74.36229
C         55.18857       52.25503       75.58581
H         54.13761       52.39147       75.91718
H         55.75089       51.72310       76.38188
H         55.64057       53.25532       75.41428
H         54.32466       51.17382       73.95910
Ca        55.90838       46.23462       71.12405
O         54.30286       45.03284       67.94813
H         53.73406       45.80327       67.69703
H         53.79856       44.24020       67.63506
O         52.92475       46.69412       70.29460
H         52.42603       46.78949       71.14448
H         52.95416       47.60957       69.91842
O         56.02446       42.85259       69.45025
H         56.51657       42.63323       68.61937
H         55.10900       42.50840       69.29454

Ca 1.0



