%chk=apoCaM-CA-Ng.loop2.water2.frame878.chk
%nprocshared=20
%mem=10GB
%nosave
#b3lyp/svp scf=(tight,noincore,xqc) Test 
#IOP(5/87=12) Density=Current Pop=(MK,readradii) iop(6/33=2) iop(6/42=6)

apoCaM-CA-Ng.loop2.water2.frame878 

   -2  1 
C          5.50774       95.55848        5.14336
C          4.69358       96.81604        5.05037
O          3.68931       96.81629        4.35334
H          6.38859       95.69252        5.80634
H          4.87958       94.74163        5.55737
H          5.86478       95.26827        4.13370
N          5.06042       97.92750        5.74751
C          4.30415       99.17162        5.74397
C          3.77870       99.38345        7.15134
O          4.13898      100.34592        7.81617
C          5.21747      100.30988        5.23191
C          4.52818      101.64334        5.07718
O          5.23235      102.69824        4.62539
O          3.34353      101.78338        5.33962
H          5.90601       97.88652        6.33827
H          3.43012       99.10736        5.05841
H          5.60603      100.02390        4.23020
H          6.08448      100.42763        5.91785
N          2.91853       98.46441        7.67442
C          2.42289       98.51724        9.04317
C          3.59387       98.35054       10.00480
O          4.30090       97.36138        9.86886
C          1.40438       97.39292        9.27334
H          2.61901       97.68310        7.06967
H          1.88661       99.47553        9.18132
H          1.86707       96.39776        9.10143
H          1.01198       97.42611       10.31075
H          0.54937       97.51310        8.57376
N          3.92204       99.25363       10.97659
C          3.14308      100.44371       11.31350
C          3.93381      101.43808       12.15961
O          5.02113      101.13791       12.63138
C          1.80479      100.05558       12.00727
C          1.98310       99.13550       13.19866
O          1.55583       99.50714       14.42125
O          2.48406       98.03177       13.05307
H          4.78786       99.06403       11.50373
H          2.94879      101.00448       10.37343
H          1.14494       99.52973       11.29468
H          1.26466      100.97710       12.31376
N          3.46351      102.71072       12.28231
C          4.19690      103.78876       12.92069
C          3.28203      104.59374       13.80594
O          2.97803      105.71780       13.43090
H          2.58560      102.95956       11.79946
H          4.53873      104.46215       12.10291
H          5.10540      103.44998       13.45907
N          2.75808      104.13993       14.97749
C          3.07098      102.87471       15.63766
C          4.52316      102.88533       16.11317
O          4.91798      103.85148       16.75162
C          2.12165      102.73062       16.85415
C          2.21320      101.42376       17.59143
N          1.46630      101.22750       18.70094
O          2.94684      100.53725       17.19440
H          2.09147      104.77342       15.44935
H          2.86616      102.02572       14.94825
H          1.07053      102.82472       16.50301
H          2.32671      103.55519       17.57083
H          0.83667      101.96509       19.04647
H          1.52180      100.34466       19.22536
N          5.36420      101.83674       15.86902
C          6.77290      101.82718       16.25958
C          7.11601      100.80768       17.33588
O          8.28944      100.69069       17.65830
H          4.99593      101.00661       15.38260
H          7.09293      102.81870       16.64447
H          7.37530      101.61404       15.35085
N          6.16057      100.06655       17.96302
C          6.42131       99.10036       19.02865
C          5.93243       97.72194       18.60608
O          5.43284       97.57298       17.49917
C          5.71701       99.56731       20.33451
C          6.30911      100.87689       20.85851
O          4.33942       99.74383       20.12424
H          5.18349      100.19827       17.69485
H          7.50985       99.01120       19.23851
H          5.88041       98.83007       21.15327
H          3.91835       98.85010       20.20977
H          5.80164      101.16547       21.80441
H          7.39194      100.74701       21.07222
H          6.17875      101.69746       20.12281
N          6.02074       96.66547       19.46396
C          5.51716       95.33342       19.15443
C          4.26445       95.12780       19.97258
O          4.31492       95.23440       21.19094
C          6.59963       94.25322       19.42760
C          6.02726       92.83233       19.16438
C          7.83394       94.53262       18.54856
C          7.00902       91.70081       19.47286
H          6.41062       96.81658       20.40634
H          5.23935       95.25922       18.08116
H          6.90587       94.31757       20.49606
H          5.69369       92.74397       18.10760
H          5.14383       92.66924       19.81875
H          8.23539       95.54823       18.74784
H          8.65519       93.82232       18.76758
H          7.56790       94.46097       17.47182
H          7.34875       91.76153       20.52855
H          6.50283       90.72437       19.31862
H          7.88721       91.73042       18.79746
N          3.08730       94.85705       19.34253
C          1.80718       94.77896       20.02679
C          1.22622       93.37759       20.00913
O          0.20918       93.17719       20.65947
C          0.85484       95.81087       19.38118
C          1.40359       97.19579       19.58838
O          1.54444       97.60372       20.73062
O          1.78294       98.00199       18.57257
H          3.08553       94.73862       18.31814
H          1.93042       95.02402       21.10602
H         -0.15076       95.76184       19.85234
H          0.74651       95.59560       18.29580
N          1.80687       92.34958       19.32134
C          1.29199       90.98837       19.38728
C          1.91807       90.12662       18.29329
O          3.13322       89.97921       18.28770
C          1.61817       90.35545       20.76190
C          1.09474       88.93958       20.83864
C          1.98565       87.85192       20.82092
C         -0.28723       88.69402       20.89763
C          1.49937       86.54173       20.84682
C         -0.76884       87.38169       20.93458
C          0.12342       86.30654       20.90424
H          2.62380       92.53371       18.72259
H          0.19287       91.02669       19.25855
H          1.19992       90.94517       21.60512
H          2.72491       90.35963       20.88086
H          3.05461       88.01627       20.76463
H         -0.98947       89.51809       20.91407
H          2.18974       85.70862       20.81681
H         -1.83432       87.19793       20.98074
H         -0.25100       85.29126       20.92329
N          1.15601       89.48431       17.35413
C          1.69249       88.54666       16.38013
C          2.37121       89.22397       15.19728
O          2.74125       88.51064       14.27428
C          0.44832       87.75377       15.96182
C         -0.62520       88.81682       15.98478
C         -0.29176       89.55463       17.27537
H          2.40649       87.82769       16.84040
H          0.54383       87.17648       15.01792
H          0.20451       87.03618       16.78040
H         -0.43481       89.49819       15.12489
H         -1.67145       88.44916       15.92682
H         -0.67917       90.59423       17.20699
H         -0.71745       89.03535       18.16065
N          2.59425       90.57202       15.14405
C          3.23516       91.21729       13.99875
C          4.65451       90.72124       13.72013
O          5.19077       91.09311       12.68517
C          3.22880       92.75697       14.15581
C          4.09658       93.26185       15.32469
C          4.02039       94.75620       15.42726
O          2.83922       95.35841       15.66391
O          5.02910       95.43160       15.30636
H          2.26620       91.16545       15.91668
H          2.61615       90.97264       13.10670
H          2.17749       93.08987       14.30220
H          3.60043       93.21836       13.21363
H          5.15421       92.95794       15.16364
H          3.75513       92.83179       16.28830
N          5.32715       89.89569       14.57649
C          6.65553       89.38115       14.30795
H          7.34809       89.70854       15.11055
H          6.61979       88.27117       14.29449
H          7.05831       89.72455       13.33202
H          4.89967       89.60763       15.46654
Ca         1.79073       98.21878       16.29989
O          5.26015       98.32564       14.65891
H          4.86978       98.95698       14.00671
H          5.98453       97.87251       14.15944
O         -0.48648       96.24570       15.71613
H         -0.85007       96.25591       14.79538
H         -0.77881       97.10724       16.10733

Ca 1.0



