%chk=apoCaM-CA-Ng.loop4.water5.frame667.chk
%nprocshared=20
%mem=10GB
%nosave
#b3lyp/svp scf=(tight,noincore,xqc) Test 
#IOP(5/87=12) Density=Current Pop=(MK,readradii) iop(6/33=2) iop(6/42=6)

apoCaM-CA-Ng.loop4.water5.frame667 

   -3  1 
C        -11.92731       54.52269       14.04035
C        -12.30326       55.15209       15.34814
O        -12.61910       56.33195       15.38064
H        -10.89192       54.12751       14.10310
H        -12.62233       53.68496       13.81912
H        -11.98058       55.26135       13.21303
N        -12.31376       54.39411       16.47838
C        -12.66746       54.88263       17.80680
C        -14.05690       55.50326       17.80808
O        -14.23966       56.57310       18.37264
C        -11.59524       55.86041       18.34709
C        -10.23082       55.23249       18.38651
O         -9.31021       55.72730       17.75736
O        -10.01183       54.13135       19.12970
H        -12.08072       53.39235       16.39342
H        -12.70027       54.00118       18.48509
H        -11.85951       56.17159       19.38072
H        -11.56283       56.77359       17.71270
N        -15.08339       54.90311       17.14027
C        -16.41681       55.50338       17.07181
C        -17.12172       55.37992       18.42370
O        -16.72883       54.51122       19.19087
C        -17.27346       54.88915       15.92114
C        -17.55274       53.37669       16.14148
C        -16.59967       55.17314       14.56257
C        -18.46836       52.76174       15.08418
H        -14.87543       54.04497       16.61249
H        -16.26190       56.56695       16.81870
H        -18.25141       55.41101       15.90359
H        -18.05722       53.24544       17.12212
H        -16.61101       52.79190       16.15897
H        -17.24367       54.85303       13.71957
H        -16.43672       56.26575       14.43999
H        -15.61992       54.65892       14.47691
H        -17.99221       52.77559       14.08304
H        -18.66508       51.70069       15.34565
H        -19.43530       53.30586       15.04652
N        -18.16537       56.16915       18.83004
C        -18.69645       57.34244       18.13334
C        -17.59226       58.37033       17.99352
O        -17.30518       58.80431       16.88604
C        -19.88288       57.92573       18.93566
C        -20.50790       59.11297       18.25792
O        -20.99625       59.00069       17.14476
O        -20.54832       60.30351       18.88606
H        -18.57381       55.94409       19.75202
H        -19.08502       57.05272       17.13548
H        -19.54449       58.21995       19.95343
H        -20.66458       57.14293       19.04935
N        -16.85944       58.71694       19.08593
C        -15.63776       59.48940       19.00718
C        -15.82023       60.93649       18.64691
O        -16.93033       61.41296       18.45509
H        -17.10247       58.30849       20.00140
H        -14.95267       59.01568       18.27339
H        -15.14321       59.46433       20.00288
N        -14.70169       61.70759       18.59452
C        -14.70194       63.14900       18.39224
C        -15.21325       63.61706       17.03280
O        -15.36882       64.82183       16.89677
C        -13.29646       63.73078       18.72427
C        -12.13012       63.04778       18.04618
O        -12.00133       63.06263       16.83762
O        -11.20354       62.41626       18.79306
H        -13.80565       61.23893       18.80010
H        -15.39864       63.59058       19.13932
H        -13.14080       63.59687       19.81662
H        -13.26790       64.82245       18.51834
N        -15.52676       62.78450       15.99200
C        -16.03005       63.31432       14.72234
C        -15.01436       64.18379       13.98758
O        -15.37569       64.83107       13.01610
H        -15.42518       61.76440       16.09105
H        -16.94159       63.91302       14.93568
H        -16.32107       62.48168       14.04538
N        -13.71184       64.19995       14.37781
C        -12.61863       64.94403       13.77067
C        -12.41350       64.54927       12.32460
O        -12.15218       65.38860       11.47587
C        -12.70287       66.46047       14.03927
C        -12.76383       66.72333       15.55686
C        -12.70252       68.17488       15.94943
N        -12.77056       68.50910       17.25952
O        -12.58521       69.05037       15.10479
H        -13.43883       63.58078       15.14036
H        -11.69014       64.59819       14.28150
H        -13.58973       66.90414       13.53772
H        -11.78366       66.93653       13.63162
H        -11.91448       66.20726       16.05570
H        -13.70923       66.30879       15.94935
H        -12.87171       67.77954       17.98176
H        -12.72348       69.49481       17.55572
N        -12.46589       63.22792       12.01196
C        -12.08541       62.65239       10.73041
C        -10.97389       61.61312       10.94642
O        -10.58341       60.96478        9.98221
C        -13.33552       62.01062       10.05008
C        -13.94458       60.84706       10.85691
C        -14.41903       63.06849        9.78464
H        -12.77283       62.57391       12.74605
H        -11.69548       63.43673       10.04537
H        -13.01852       61.60531        9.06354
H        -14.79796       60.40478       10.29913
H        -13.19648       60.04386       11.01617
H        -14.32523       61.18685       11.84264
H        -15.27630       62.61600        9.24125
H        -14.80032       63.49401       10.73663
H        -14.01185       63.89316        9.16279
N        -10.47919       61.34763       12.19605
C         -9.69170       60.17883       12.54117
C         -8.59671       60.51204       13.55184
O         -8.86789       61.15079       14.56097
C        -10.67562       59.17217       13.16396
C        -10.00539       57.95733       13.74483
N        -10.14157       57.68408       15.06245
O         -9.34360       57.21825       13.03099
H        -10.81356       61.88199       13.00844
H         -9.25782       59.68778       11.63996
H        -11.40095       58.84695       12.38628
H        -11.25145       59.68302       13.96617
H        -10.69583       58.29952       15.67610
H         -9.71182       56.84867       15.47501
N         -7.35798       59.97948       13.38232
C         -6.25644       60.04437       14.34693
C         -5.10230       59.24281       13.78745
O         -5.31057       58.09772       13.40844
C         -6.63524       59.44064       15.72860
C         -5.41035       59.27740       16.61929
C         -4.99035       57.99132       17.00645
C         -4.65385       60.38997       17.03042
C         -3.83546       57.81952       17.77433
C         -3.49628       60.21475       17.79987
C         -3.08054       58.93097       18.16950
O         -1.95513       58.77726       18.89715
H         -7.21035       59.42923       12.52001
H         -5.94357       61.09961       14.50497
H         -7.09532       58.44949       15.55802
H         -7.38752       60.06908       16.24818
H         -5.54575       57.11483       16.70154
H         -4.94941       61.39087       16.74440
H         -3.52404       56.82093       18.05369
H         -2.91500       61.07721       18.10185
H         -1.62606       57.90519       19.15965
N         -3.84692       59.75740       13.76066
C         -2.71723       59.02334       13.22352
C         -1.77174       58.66005       14.35442
O         -1.09772       59.55896       14.83969
C         -2.05105       59.91148       12.15125
C         -0.80050       59.30470       11.50810
C         -0.23574       60.25632       10.48965
O         -0.89798       60.58225        9.51681
O          1.00125       60.76404       10.65127
H         -3.68066       60.69583       14.15822
H         -3.06395       58.10675       12.72586
H         -1.76608       60.88334       12.61559
H         -2.80589       60.12083       11.36064
H         -1.04857       58.34057       11.01692
H         -0.03288       59.12127       12.29039
N         -1.64506       57.40026       14.88190
C         -2.46485       56.21543       14.58994
C         -2.38239       55.75978       13.14549
O         -1.29217       55.53062       12.64136
C         -2.02175       55.04735       15.51206
C         -2.78338       53.72314       15.30381
C         -4.25049       53.81830       15.59835
O         -4.67664       54.13980       16.83471
O         -5.06360       53.54319       14.73102
H         -0.93877       57.29910       15.62905
H         -3.52133       56.44890       14.84582
H         -2.12821       55.35830       16.57406
H         -0.94514       54.83825       15.32729
H         -2.35398       52.95627       15.98266
H         -2.63366       53.36416       14.26249
N         -3.53640       55.54312       12.44856
C         -3.58808       55.03804       11.09423
H         -4.13721       55.75985       10.45454
H         -2.57902       54.87060       10.66654
H         -4.13841       54.07220       11.09053
H         -4.44159       55.71079       12.91004
Ca        -6.88070       54.01722       17.32321
O         -6.91950       52.79665       20.04211
H         -6.87326       53.55691       20.67455
H         -7.43550       52.10265       20.52349
O         -6.65626       56.09638       19.47470
H         -5.68150       56.10019       19.64796
H         -6.82025       56.91556       18.94398
O         -7.02021       55.56902       14.92385
H         -6.30168       55.99796       14.40107
H         -7.60275       56.31391       15.19783
O         -8.21850       52.84068       14.53949
H         -8.30425       53.56210       13.86693
H         -7.53315       52.23388       14.16253
O         -6.29388       51.00238       16.79018
H         -6.90373       50.55415       16.15208
H         -5.49738       51.23308       16.24973

Ca 1.0



