%chk=apoCaM-CA-Ng.loop1.water5.frame384.chk
%nprocshared=20
%mem=10GB
%nosave
#b3lyp/svp scf=(tight,noincore,xqc) Test 
#IOP(5/87=12) Density=Current Pop=(MK,readradii) iop(6/33=2) iop(6/42=6)

apoCaM-CA-Ng.loop1.water5.frame384 

   0  1 
C          7.35583      102.74799       20.01234
C          7.30507      101.45259       19.24865
O          7.61654      101.44346       18.06673
H          8.38692      103.15746       19.99145
H          6.65970      103.48115       19.55461
H          7.06024      102.60802       21.07504
N          6.92100      100.30684       19.87440
C          6.85187       98.99451       19.23046
C          5.64560       98.84647       18.28600
O          5.36529       97.72047       17.90108
C          6.78127       97.88854       20.32034
C          8.01471       97.84836       21.19309
O          8.72110       96.85246       21.20342
O          8.33911       98.89067       21.98206
H          6.70232      100.36805       20.88078
H          7.78766       98.79314       18.66257
H          6.70098       96.89653       19.82212
H          5.88050       98.02517       20.95712
N          4.87700       99.90184       17.87433
C          3.62583       99.74825       17.13111
C          3.71162      100.36875       15.73697
O          4.12759      101.51627       15.66085
C          2.49854      100.46506       17.91881
C          2.36833      100.02207       19.39440
C          2.01845       98.53604       19.59849
C          0.61521       98.13495       19.10865
N         -0.45107       98.70768       19.92962
H          5.13224      100.86046       18.13775
H          3.36430       98.68802       17.04814
H          1.53158      100.33925       17.38895
H          2.72049      101.55564       17.93245
H          1.61410      100.66068       19.89751
H          3.33576      100.22223       19.90244
H          2.09140       98.28960       20.67926
H          2.77809       97.91896       19.07874
H          0.53576       97.02767       19.16186
H          0.46765       98.43451       18.05702
H         -0.42917       99.75065       19.90509
H         -1.37235       98.38893       19.55108
H         -0.36033       98.36858       20.91484
N          3.27653       99.76238       14.57940
C          2.70011       98.42207       14.42073
C          1.50584       98.21135       15.32765
O          1.56584       97.36092       16.19730
C          3.78737       97.33192       14.51606
C          4.74349       97.44438       13.36573
O          4.55452       98.40036       12.43851
O          5.72071       96.71643       13.29954
H          3.32408      100.32955       13.71769
H          2.30541       98.30914       13.38787
H          3.33640       96.32533       14.45089
H          4.33863       97.42440       15.46959
N          0.34581       98.90575       15.16264
C          0.12731       99.77359       14.01791
C         -1.26813      100.35395       13.94983
O         -2.01219      100.25881       14.91690
H         -0.42378       98.72197       15.82402
H          0.24785       99.13219       13.11989
H          0.86442      100.60341       13.99226
N         -1.74805      100.92974       12.81015
C         -1.00311      101.02538       11.55370
C         -1.49269       99.99512       10.53709
O         -0.89885       99.90717        9.46968
C         -1.05776      102.46957       11.01502
C         -2.45930      102.94169       10.72925
O         -3.14548      102.37763        9.89197
O         -2.96071      103.99965       11.39492
H         -2.73032      101.24564       12.81272
H          0.06875      100.79858       11.71419
H         -0.45459      102.54847       10.08456
H         -0.59973      103.14282       11.77272
N         -2.55413       99.17357       10.78972
C         -3.02170       98.15880        9.86178
C         -2.05181       97.00699        9.76223
O         -1.58789       96.70542        8.67279
H         -3.08468       99.26930       11.66693
H         -3.22273       98.61710        8.86842
H         -3.97607       97.73637       10.24184
N         -1.71590       96.30927       10.88498
C         -0.81240       95.16042       10.89163
C         -1.46583       93.95565       11.56333
O         -2.59816       94.04344       12.01581
C          0.50736       95.54341       11.61421
C          0.30938       95.86241       13.09759
O          1.09036       96.65228       10.98382
H         -2.10771       96.62417       11.78520
H         -0.54149       94.86876        9.85363
H          1.22946       94.69622       11.57710
H          1.49351       96.32181       10.13808
H         -0.11274       94.99220       13.64228
H          1.29069       96.08777       13.54459
H         -0.35065       96.73977       13.24190
N         -0.74368       92.81139       11.72576
C         -1.18579       91.66119       12.50421
C         -0.40856       91.64500       13.80948
O         -1.02318       91.55817       14.86419
C         -0.93473       90.33450       11.72454
C         -1.59349       90.31087       10.32351
C         -1.36425       89.10626       12.55653
C         -3.12061       90.40114       10.32151
H          0.21052       92.78296       11.34346
H         -2.26813       91.73238       12.75205
H          0.16048       90.23949       11.54889
H         -1.30134       89.36686        9.81234
H         -1.19012       91.15035        9.71819
H         -1.15237       88.16878       12.00050
H         -0.80010       89.05519       13.51156
H         -2.44514       89.14389       12.80489
H         -3.57350       89.54347       10.85929
H         -3.46261       91.35106       10.77912
H         -3.48231       90.37099        9.27226
N          0.95284       91.72277       13.80454
C          1.78168       91.59924       14.99690
C          2.46596       92.90867       15.34405
O          2.33699       93.88023       14.61300
C          2.80139       90.44430       14.80313
C          3.72926       90.63833       13.58864
O          2.09735       89.23879       14.65789
H          1.42961       91.87298       12.90670
H          1.14868       91.35717       15.87867
H          3.43347       90.38994       15.71778
H          2.71862       88.50894       14.91702
H          4.27692       91.60180       13.65386
H          4.47115       89.81418       13.54964
H          3.16551       90.60542       12.63318
N          3.19314       92.99556       16.49517
C          3.85139       94.20584       16.96489
C          5.35118       93.98674       16.97862
O          5.79826       92.99272       17.53443
C          3.28593       94.64238       18.35095
C          3.58400       93.67800       19.50277
O          1.89055       94.79270       18.28675
H          3.27639       92.15551       17.08541
H          3.63729       95.05063       16.28324
H          3.74554       95.61877       18.62612
H          1.68415       95.38138       17.52066
H          3.11720       92.68816       19.32341
H          4.67358       93.55746       19.66143
H          3.15891       94.09308       20.44213
N          6.18836       94.86612       16.35249
C          7.63778       94.69211       16.29134
C          8.27182       95.79630       15.43397
O          9.03890       95.47961       14.53652
C          8.28371       94.65076       17.71023
C          9.66357       93.94698       17.72970
C          9.55014       92.41543       17.50917
C         10.91589       91.71444       17.56527
N         10.76907       90.26401       17.41114
H          5.76688       95.67495       15.87872
H          7.80828       93.71801       15.79524
H          7.66542       94.09405       18.44135
H          8.35848       95.68714       18.10412
H         10.10736       94.09566       18.73879
H         10.34043       94.40948       16.98099
H          9.09912       92.18075       16.52545
H          8.89764       91.98616       18.30199
H         11.40938       91.92601       18.53905
H         11.56156       92.10591       16.74841
H         11.71484       89.81769       17.42192
H         10.20610       89.87236       18.20134
H         10.30170       90.03690       16.50318
N          7.95075       97.11495       15.62937
C          8.47373       98.21484       14.81560
C          9.79748       98.67597       15.36188
O          9.86853       99.08647       16.51256
C          7.46589       99.39438       14.74331
C          8.00105      100.71143       14.11799
C          8.83769      100.60460       12.85312
O          9.98252      101.02604       12.87294
O          8.37433      100.08754       11.69889
H          7.25990       97.34400       16.35525
H          8.59259       97.87668       13.76213
H          7.09970       99.65650       15.76130
H          6.58852       99.05455       14.17089
H          8.64504      101.19400       14.88549
H          7.13904      101.39336       13.94761
N         10.88936       98.68611       14.55212
C         12.16345       99.20687       14.98421
H         12.89268       99.14822       14.14864
H         12.04951      100.27314       15.27681
H         12.54255       98.61811       15.84392
H         10.80642       98.34865       13.58059
Ca         6.32826       99.28291       11.48946
O          6.73399      102.72144       10.14916
H          6.90087      102.53067       11.10630
H          7.63225      102.70487        9.73266
O          5.75367       97.01845        9.60084
H          6.37948       96.72485       10.30984
H          5.52203       96.18849        9.11423
O          4.16948       99.20025        7.89603
H          3.23925       99.35431        7.59380
H          4.50558       98.47854        7.30723
O          2.39162       99.52482       10.63368
H          1.67860       99.59576        9.95185
H          2.76565       98.61857       10.49991
O          7.26014       99.95114        8.56585
H          7.74437      100.60450        8.00120
H          7.62659       99.07100        8.29885

Ca 1.0



