%chk=apoCaM-CA-Ng.loop2.water3.frame527.chk
%nprocshared=20
%mem=10GB
%nosave
#b3lyp/svp scf=(tight,noincore,xqc) Test 
#IOP(5/87=12) Density=Current Pop=(MK,readradii) iop(6/33=2) iop(6/42=6)

apoCaM-CA-Ng.loop2.water3.frame527 

   -2  1 
C         71.31476       21.31026       49.18853
C         70.73703       20.24659       48.29954
O         70.34452       20.56168       47.18492
H         72.18205       21.78791       48.68730
H         70.54237       22.08293       49.39059
H         71.65219       20.89059       50.15941
N         70.61739       18.96117       48.73907
C         70.01145       17.91004       47.92558
C         70.91486       17.53431       46.75751
O         72.09699       17.84203       46.79277
C         69.72435       16.67827       48.81265
C         68.97191       15.59031       48.10192
O         69.51532       14.36465       47.97793
O         67.85984       15.80733       47.64714
H         70.91382       18.74307       49.70336
H         69.04175       18.30287       47.54535
H         69.10884       16.99777       49.68183
H         70.68608       16.27569       49.20101
N         70.41530       16.85749       45.68209
C         71.23713       16.42581       44.54862
C         71.88172       17.61470       43.85464
O         71.43103       18.72883       44.08837
C         70.33566       15.68656       43.54225
H         69.40706       16.64215       45.67270
H         72.02070       15.74384       44.93779
H         69.54376       16.37487       43.16973
H         70.88248       15.30676       42.66290
H         69.84306       14.82243       44.03420
N         72.90634       17.51451       42.95565
C         73.66148       16.30727       42.58829
C         74.49863       15.73062       43.72452
O         75.10194       16.47065       44.48294
C         74.52928       16.50758       41.30358
C         74.99818       17.91766       41.00818
O         75.86210       18.60640       41.77523
O         74.53044       18.48785       40.03475
H         73.16887       18.40465       42.51203
H         72.96470       15.50181       42.29318
H         73.85957       16.25554       40.44986
H         75.36173       15.77053       41.25546
N         74.64410       14.37254       43.81234
C         75.49325       13.66319       44.76367
C         74.99251       13.70856       46.19491
O         74.02153       14.40111       46.46385
H         74.16664       13.78747       43.10901
H         76.53289       14.03608       44.69603
H         75.48975       12.59424       44.46098
N         75.55504       12.94591       47.18641
C         76.67983       12.02438       46.98825
C         77.99163       12.77018       46.81189
O         78.05152       13.96516       47.05951
C         76.85459       11.07766       48.20636
C         75.69093       10.13617       48.41136
N         75.87198        8.79506       48.34002
O         74.58099       10.58035       48.66145
H         75.11415       12.98679       48.11863
H         76.48260       11.39175       46.09633
H         77.01261       11.67482       49.13149
H         77.76593       10.45957       48.05725
H         76.79887        8.39260       48.13606
H         75.08164        8.15113       48.49104
N         79.11406       12.08640       46.44074
C         80.44692       12.66842       46.42645
C         80.65991       13.80709       45.45282
O         81.75400       14.35031       45.46829
H         79.03624       11.08039       46.22649
H         81.18654       11.87423       46.18349
H         80.67022       13.03854       47.45009
N         79.70649       14.21432       44.56672
C         79.88527       15.34319       43.65392
C         79.69489       16.67246       44.45553
O         79.63113       17.77680       43.62551
C         78.88776       15.17740       42.45783
C         79.13018       16.13852       41.27498
O         79.02361       13.87077       41.95516
H         78.83266       13.67534       44.50312
H         80.90211       15.29134       43.20353
H         77.85193       15.30950       42.85003
H         78.18820       13.65924       41.46094
H         80.16030       16.01178       40.88140
H         78.41199       15.90540       40.46033
H         78.97780       17.20369       41.50356
N         80.71848       16.88483       45.49372
C         80.57939       18.16123       46.23911
C         81.04770       19.35842       45.39666
O         81.98757       19.21758       44.62579
C         81.32536       18.05723       47.60653
C         81.23325       19.39851       48.37816
C         80.72736       16.90137       48.43459
C         81.85115       19.40535       49.77540
H         81.67945       16.81129       45.08541
H         79.50636       18.31903       46.48350
H         82.39923       17.83127       47.42300
H         80.17050       19.70745       48.46769
H         81.78913       20.15318       47.79296
H         79.66374       17.10579       48.67968
H         80.79117       15.94122       47.88187
H         81.28811       16.75614       49.37988
H         81.78027       20.43227       50.19534
H         81.29874       18.73135       50.46119
H         82.91953       19.10989       49.73033
N         80.40945       20.56658       45.49135
C         80.71354       21.72313       44.64782
C         81.27779       22.89973       45.43401
O         81.67412       23.87327       44.80896
C         79.42613       22.21447       43.95476
C         78.68321       21.13054       43.23714
O         77.42035       20.84151       43.60468
O         79.20315       20.52176       42.31677
H         79.65895       20.67019       46.18328
H         81.46645       21.43678       43.88075
H         79.66958       23.02608       43.23543
H         78.74468       22.63338       44.72924
N         81.32750       22.89792       46.79595
C         81.83609       23.99379       47.60110
C         80.73908       24.44119       48.56537
O         80.91017       24.29062       49.76618
C         83.12695       23.50421       48.30257
C         83.71202       24.51367       49.26578
C         84.04432       25.81525       48.84814
C         83.92322       24.15132       50.60853
C         84.56318       26.73745       49.76316
C         84.45018       25.07312       51.51594
C         84.76615       26.36659       51.09515
H         80.98379       22.08559       47.31665
H         82.12935       24.86430       46.97885
H         83.88367       23.28069       47.51871
H         82.91279       22.55320       48.83903
H         83.89370       26.12307       47.82180
H         83.68065       23.15403       50.95478
H         84.80672       27.74127       49.44018
H         84.61029       24.78388       52.54653
H         85.16850       27.08078       51.80165
N         79.57485       25.02330       48.12733
C         78.57480       25.57037       49.03467
C         77.86338       24.55764       49.90672
O         77.10647       24.98165       50.77068
C         77.57524       26.27210       48.11196
C         78.46510       26.68224       46.95480
C         79.29558       25.41712       46.76412
H         79.10086       26.31713       49.67216
H         76.85589       25.52259       47.70681
H         77.00013       27.08966       48.59756
H         77.92243       27.02038       46.04758
H         79.13780       27.49984       47.30367
H         78.67413       24.62619       46.28808
H         80.18990       25.63572       46.14922
N         78.03143       23.21147       49.74812
C         77.42398       22.25289       50.65680
C         78.05007       22.46657       52.02046
O         77.32942       22.68278       52.98460
C         77.60185       20.78499       50.20146
C         76.73264       20.35475       48.99484
C         77.17522       20.81655       47.63173
O         77.46079       19.98442       46.78620
O         77.16557       22.11746       47.29071
H         78.64135       22.85759       48.99940
H         76.32518       22.42447       50.72385
H         77.22229       20.16596       51.04555
H         78.66777       20.51635       50.05318
H         75.67864       20.66741       49.15751
H         76.74633       19.24225       48.97691
N         79.40577       22.50225       52.14945
C         80.05420       22.82434       53.40037
H         81.15399       22.87848       53.25086
H         79.70522       23.81743       53.75932
H         79.82558       22.05036       54.16071
H         79.99901       22.35052       51.31997
Ca        77.39859       18.00872       43.28089
O         74.85581       18.77597       46.82988
H         74.99009       18.02058       47.45507
H         74.48502       18.35937       46.01414
O         77.23010       16.86830       46.54368
H         77.79670       16.55555       47.29127
H         77.29832       16.15321       45.86379
O         74.47394       20.36496       44.02562
H         74.26125       21.22986       43.59411
H         73.68125       20.16767       44.58397

Ca 1.0



