%chk=apoCaM-CA-Ng.loop2.water5.frame476.chk
%nprocshared=20
%mem=10GB
%nosave
#b3lyp/svp scf=(tight,noincore,xqc) Test 
#IOP(5/87=12) Density=Current Pop=(MK,readradii) iop(6/33=2) iop(6/42=6)

apoCaM-CA-Ng.loop2.water5.frame476 

   -2  1 
C         52.78666       58.09396       68.19579
C         53.36240       57.44105       66.97435
O         54.09523       56.47081       67.10269
H         51.67843       58.04807       68.15474
H         53.13405       57.58253       69.11880
H         53.10623       59.15712       68.23648
N         53.07967       57.94662       65.74253
C         53.61046       57.40244       64.50046
C         54.54087       58.44308       63.90948
O         54.27539       58.98924       62.84691
C         52.43406       57.01417       63.57768
C         52.86059       56.33165       62.30118
O         54.16031       56.09540       62.03165
O         52.01145       55.97224       61.50189
H         52.47623       58.78246       65.68187
H         54.20607       56.48159       64.68822
H         51.84063       57.92118       63.32854
H         51.77384       56.30804       64.12704
N         55.66780       58.77278       64.59936
C         56.60095       59.81444       64.19562
C         56.67719       60.87121       65.28357
O         56.00406       60.73562       66.29716
C         57.96992       59.18567       63.92682
H         55.86911       58.26787       65.47729
H         56.26041       60.31119       63.26064
H         57.87611       58.42766       63.11965
H         58.70003       59.95101       63.59078
H         58.36029       58.69020       64.84084
N         57.46170       61.97435       65.12635
C         57.51239       63.05814       66.10209
C         58.89180       63.24920       66.71207
O         59.02072       64.13228       67.54971
C         56.97611       64.35054       65.45355
C         57.75838       64.78684       64.24492
O         57.20912       64.86206       63.15735
O         59.06006       65.11276       64.35549
H         58.01519       62.07107       64.26172
H         56.84543       62.84054       66.96220
H         56.98150       65.17521       66.19320
H         55.91786       64.17183       65.15885
N         59.96612       62.46990       66.38439
C         61.26468       62.66767       67.01044
C         61.26803       62.35446       68.49715
O         62.24712       62.69579       69.14646
H         59.88346       61.73541       65.66768
H         61.56176       63.72830       66.85516
H         62.03277       62.02873       66.52384
N         60.24264       61.68241       69.10353
C         60.19784       61.39949       70.53636
C         60.31945       59.90484       70.78734
O         60.40875       59.13978       69.83302
C         58.86500       61.92593       71.11747
C         58.63555       63.38725       70.82449
N         59.48758       64.33440       71.27865
O         57.65790       63.71868       70.17112
H         59.45775       61.33317       68.53314
H         61.04591       61.89198       71.06050
H         58.83582       61.77931       72.21754
H         58.02776       61.34076       70.67339
H         60.31407       64.07851       71.83686
H         59.31738       65.32983       71.07086
N         60.32519       59.40795       72.05675
C         60.38730       57.97448       72.30880
C         60.29654       57.60158       73.77450
O         60.26348       58.47060       74.63756
H         60.25703       60.06929       72.84549
H         61.32771       57.55678       71.88785
H         59.52253       57.49855       71.79606
N         60.20658       56.28462       74.11871
C         60.01876       55.81808       75.49369
C         58.77873       56.46637       76.09156
O         58.88334       57.07220       77.14836
C         59.98936       54.26502       75.59591
C         58.84186       53.56341       74.84887
O         61.22993       53.73009       75.20069
H         60.23321       55.59395       73.35350
H         60.89510       56.13955       76.10173
H         59.86396       54.00873       76.67077
H         61.29689       53.78844       74.21279
H         58.87980       53.76799       73.75915
H         58.92386       52.46581       74.99845
H         57.85765       53.87687       75.24855
N         57.60997       56.49626       75.38974
C         56.46459       57.31606       75.77659
C         56.45115       58.56022       74.90139
O         57.31369       58.68808       74.04158
C         55.14038       56.48555       75.80353
C         54.83380       55.63934       74.53794
C         55.16558       55.54211       77.01833
C         54.67251       56.44010       73.25044
H         57.58587       56.04846       74.46196
H         56.60771       57.73558       76.79672
H         54.29108       57.18235       75.97326
H         53.87397       55.10147       74.70663
H         55.61787       54.86686       74.38688
H         55.30260       56.12377       77.95535
H         54.20248       54.99425       77.10538
H         55.99079       54.80367       76.93291
H         54.39396       55.74638       72.42787
H         53.86925       57.19767       73.36353
H         55.62169       56.93150       72.96444
N         55.54524       59.56036       75.10498
C         55.63223       60.83746       74.40371
C         55.56135       61.97463       75.42255
O         54.74156       62.86681       75.27904
C         54.51881       60.88565       73.33987
C         54.61796       62.05780       72.40331
O         53.78976       62.18108       71.51711
O         55.61573       62.95845       72.50727
H         54.79125       59.43082       75.79643
H         56.60696       60.91353       73.87322
H         53.52666       60.88281       73.84243
H         54.59309       59.96877       72.71442
N         56.36506       61.95909       76.52501
C         56.27712       62.93035       77.62205
C         54.84817       62.98649       78.17007
O         54.33321       61.93629       78.53057
C         57.22187       62.48180       78.76740
C         57.08257       63.32311       80.01857
C         57.53130       64.65372       80.06078
C         56.47842       62.76794       81.16200
C         57.37328       65.41280       81.22776
C         56.31420       63.53115       82.31942
C         56.76199       64.85266       82.35373
H         57.02798       61.17324       76.61722
H         56.60074       63.92846       77.26313
H         58.28206       62.47308       78.43269
H         56.95295       61.43111       79.01659
H         58.00261       65.10163       79.19525
H         56.11720       61.74701       81.15338
H         57.72099       66.43712       81.26061
H         55.83646       63.09654       83.18830
H         56.63385       65.44095       83.25339
N         54.15034       64.16073       78.31508
C         52.83003       64.22625       78.92512
C         51.72119       63.85805       77.95023
O         50.58965       63.69850       78.38581
C         52.72461       65.69528       79.35035
C         53.44778       66.39724       78.21489
C         54.65675       65.48566       78.00476
H         52.76889       63.57688       79.82680
H         51.69528       66.05622       79.56379
H         53.34479       65.84203       80.26421
H         52.79467       66.33452       77.31575
H         53.70012       67.46538       78.38444
H         55.01867       65.58697       76.95899
H         55.46596       65.73097       78.72175
N         51.95470       63.77792       76.61053
C         50.91401       63.49519       75.63030
C         50.48194       62.03411       75.64986
O         49.54832       61.70749       74.92956
C         51.41921       63.84804       74.21615
C         51.75214       65.34443       74.06978
C         52.34801       65.59470       72.72136
O         53.49837       64.97865       72.39368
O         51.79928       66.33682       71.92374
H         52.89365       64.00336       76.26685
H         50.03261       64.13951       75.84735
H         50.64264       63.59685       73.45987
H         52.32148       63.23345       74.00327
H         52.49624       65.67251       74.82423
H         50.82657       65.94524       74.20877
N         51.11556       61.09410       76.41274
C         50.73924       59.69419       76.42385
H         49.88043       59.47699       75.75440
H         51.60279       59.08030       76.09112
H         50.46149       59.39628       77.45604
H         51.91492       61.35563       77.00546
Ca        54.41770       65.08618       70.34402
O         55.02091       62.44910       68.82664
H         54.50495       62.26848       68.00122
H         55.36433       61.56364       69.10645
O         56.04753       66.27787       68.32352
H         56.83039       65.75005       68.62110
H         56.42867       67.13759       68.01688
O         52.06552       63.59011       69.04822
H         51.28870       64.20344       69.05198
H         51.88717       62.96096       69.79125
O         53.00549       67.45689       69.09125
H         52.33599       66.75509       69.29131
H         53.40620       67.67751       69.96981
O         56.53619       66.79068       71.57737
H         57.32664       67.08889       72.09295
H         55.95991       67.59366       71.51475

Ca 1.0



