%chk=apoCaM-CA-Ng.loop2.water4.frame356.chk
%nprocshared=20
%mem=10GB
%nosave
#b3lyp/svp scf=(tight,noincore,xqc) Test 
#IOP(5/87=12) Density=Current Pop=(MK,readradii) iop(6/33=2) iop(6/42=6)

apoCaM-CA-Ng.loop2.water4.frame356 

   -2  1 
C         67.89573      107.21677       34.68050
C         66.91757      108.33215       34.45389
O         66.33929      108.80700       35.42093
H         68.70519      107.56586       35.35610
H         67.37572      106.35623       35.15138
H         68.35292      106.87690       33.72775
N         66.68350      108.80611       33.19640
C         65.75622      109.89178       32.90843
C         64.66521      109.38730       31.98016
O         64.96836      108.99782       30.86180
C         66.53862      111.07008       32.28967
C         65.67623      112.27324       32.01284
O         64.75880      112.20877       31.21009
O         65.93436      113.44149       32.63120
H         67.19181      108.38415       32.40355
H         65.29094      110.26262       33.84838
H         67.03061      110.75150       31.34478
H         67.33696      111.36938       33.00438
N         63.36355      109.38297       32.38810
C         62.24039      108.98167       31.54740
C         61.49088      107.82126       32.16729
O         61.21842      107.85157       33.36008
C         61.28339      110.16076       31.38850
H         63.14719      109.70856       33.34308
H         62.57570      108.70077       30.52435
H         60.43009      109.86513       30.73941
H         60.88810      110.48473       32.37489
H         61.80996      111.01272       30.90988
N         61.07564      106.77966       31.39072
C         60.34267      105.63563       31.92134
C         59.05215      106.05324       32.60024
O         58.17794      106.62873       31.96761
C         60.06422      104.58552       30.81923
C         61.37287      103.99617       30.39130
O         61.77306      104.07617       29.24233
O         62.12656      103.44769       31.35765
H         61.28973      106.80378       30.38232
H         60.98712      105.15098       32.68778
H         59.51005      105.03629       29.96713
H         59.45351      103.75767       31.24246
N         58.88325      105.75650       33.91907
C         57.68063      106.09358       34.66694
C         57.62982      105.58573       36.11266
O         56.64785      105.90272       36.76864
H         59.66194      105.27509       34.36883
H         56.79943      105.66427       34.14230
H         57.57858      107.20030       34.67730
N         58.59015      104.78879       36.68071
C         58.53281      104.26163       38.04050
C         59.77891      104.74160       38.80020
O         60.57435      105.47154       38.22130
C         58.48720      102.71480       37.90773
C         58.01039      101.92542       39.10520
N         58.05456      100.57387       39.06703
O         57.54275      102.48125       40.08683
H         59.40958      104.47766       36.15286
H         57.61231      104.61381       38.55392
H         59.49449      102.36215       37.59262
H         57.77254      102.44702       37.09829
H         58.42918      100.08424       38.24085
H         57.71987      100.01449       39.86537
N         60.04171      104.35293       40.07963
C         61.25703      104.70944       40.79379
C         62.06299      103.46513       41.07714
O         61.98876      102.51829       40.30454
H         59.38812      103.74485       40.57888
H         60.97306      105.21329       41.74298
H         61.90061      105.41215       40.22400
N         62.84344      103.38149       42.19136
C         63.58060      102.16405       42.52882
C         64.76321      101.90094       41.59522
O         65.35249      100.83569       41.71121
C         64.04234      102.16079       44.01315
C         65.11782      103.20587       44.34942
O         62.93540      102.28462       44.87345
H         62.85116      104.18447       42.83673
H         62.86841      101.31315       42.43404
H         64.49891      101.16884       44.22402
H         62.64054      103.23189       44.87164
H         64.76338      104.23860       44.15420
H         65.39546      103.12219       45.42111
H         66.03014      103.01439       43.75426
N         65.18027      102.81556       40.66712
C         66.32341      102.60820       39.78006
C         65.83218      102.57955       38.34659
O         64.94510      103.34681       37.99757
C         67.39148      103.72726       39.97724
C         67.82341      103.89953       41.45609
C         68.62833      103.49407       39.08406
C         68.46425      102.66577       42.10226
H         64.68319      103.71295       40.57876
H         66.81672      101.63474       39.99200
H         66.93976      104.69770       39.67218
H         66.93652      104.19506       42.05091
H         68.54711      104.74096       41.52289
H         69.10921      102.51871       39.30805
H         68.35271      103.50195       38.01052
H         69.37315      104.30356       39.23659
H         68.72524      102.90093       43.15558
H         67.76525      101.80709       42.11147
H         69.39608      102.37344       41.57786
N         66.41883      101.74434       37.44512
C         66.01280      101.64556       36.05050
C         65.71643      100.17894       35.68930
O         65.57940       99.86152       34.51679
C         67.13172      102.28388       35.18737
C         66.69802      102.59817       33.77630
O         65.43743      102.33063       33.39608
O         67.45685      103.17223       33.01198
H         67.22244      101.17234       37.75035
H         65.09540      102.24892       35.87370
H         68.04003      101.65639       35.20484
H         67.39335      103.26706       35.63710
N         65.56724       99.23257       36.66572
C         65.35793       97.80883       36.41449
C         66.64927       97.19110       35.90211
O         67.68524       97.46163       36.49635
C         64.96602       97.07821       37.71965
C         63.61108       97.51089       38.23301
C         63.48639       98.57287       39.14700
C         62.45218       96.83790       37.80500
C         62.22597       98.95631       39.61574
C         61.19448       97.22288       38.27961
C         61.08162       98.28193       39.18329
H         65.60227       99.52905       37.64833
H         64.51268       97.66038       35.70984
H         65.74000       97.20539       38.50836
H         64.91663       95.98567       37.51046
H         64.35933       99.10404       39.50167
H         62.52239       96.01385       37.10537
H         62.13659       99.77433       40.31772
H         60.30716       96.69885       37.94782
H         60.10812       98.57752       39.55086
N         66.69000       96.30630       34.85744
C         67.91721       95.66327       34.41467
C         68.75816       96.57239       33.52967
O         69.85323       96.17272       33.16045
C         67.40720       94.43100       33.66419
C         66.14188       94.96459       33.01912
C         65.53313       95.79315       34.15114
H         68.53367       95.32755       35.27853
H         68.14084       93.95203       32.98076
H         67.08772       93.67499       34.41809
H         66.45503       95.65685       32.20510
H         65.45952       94.20008       32.59102
H         64.88758       96.58750       33.72024
H         64.95243       95.15842       34.85687
N         68.31091       97.79754       33.13444
C         69.10433       98.71479       32.32802
C         70.29810       99.19108       33.12748
O         71.42031       99.04158       32.66504
C         68.24241       99.91409       31.88215
C         67.14839       99.46538       30.89745
C         66.26948      100.60203       30.47817
O         66.74418      101.58675       29.93462
O         64.93986      100.51900       30.67164
H         67.36623       98.09738       33.41088
H         69.45872       98.20657       31.40258
H         68.88567      100.66255       31.36815
H         67.78814      100.39276       32.77234
H         66.50797       98.68257       31.35618
H         67.62766       99.03770       29.99113
N         70.12093       99.76482       34.34977
C         71.20486      100.26338       35.17102
H         72.19506      100.14487       34.68338
H         71.04220      101.34273       35.37479
H         71.21783       99.71472       36.13578
H         69.16737       99.83999       34.72805
Ca        64.31092      103.05316       31.59587
O         63.94357      106.08855       29.68223
H         64.52717      106.86978       29.52202
H         63.24554      106.16773       28.98561
O         67.02745      105.40029       30.42531
H         66.95150      106.10062       29.72943
H         67.92626      105.53829       30.81694
O         64.56853      103.03641       28.23848
H         65.18590      102.46555       27.71597
H         63.75833      102.47944       28.35409
O         64.41966      105.64884       33.24197
H         64.52572      106.61741       33.06907
H         64.39918      105.57247       34.22888

Ca 1.0



