%chk=apoCaM-CA-Ng.loop4.water3.frame305.chk
%nprocshared=20
%mem=10GB
%nosave
#b3lyp/svp scf=(tight,noincore,xqc) Test 
#IOP(5/87=12) Density=Current Pop=(MK,readradii) iop(6/33=2) iop(6/42=6)

apoCaM-CA-Ng.loop4.water3.frame305 

   -3  1 
C         87.25635       54.69649       32.99579
C         88.66832       54.24088       33.20216
O         89.13098       54.26776       34.32906
H         86.80889       55.03094       33.95781
H         87.22807       55.53526       32.27208
H         86.65271       53.84846       32.60835
N         89.39965       53.76203       32.15514
C         90.73210       53.18105       32.28732
C         90.69905       51.97012       33.19972
O         91.37208       51.93578       34.21292
C         91.87575       54.22186       32.47896
C         91.75496       55.43345       33.38487
O         91.69304       55.38772       34.72985
O         91.82043       56.53825       32.86770
H         88.95416       53.72783       31.22562
H         91.00506       52.72358       31.30781
H         92.01256       54.66097       31.46349
H         92.82211       53.68357       32.70196
N         89.91958       50.91356       32.81419
C         89.73820       49.61177       33.45858
C         90.98289       48.72907       33.38627
O         90.91962       47.71672       32.70083
C         89.12415       49.70180       34.88007
C         88.77719       48.29525       35.45099
C         87.87387       50.60212       34.88619
C         87.78983       47.46546       34.61122
H         89.37728       51.04091       31.94457
H         88.97606       49.10061       32.83052
H         89.86395       50.16669       35.56567
H         88.34332       48.42982       36.46292
H         89.70747       47.69913       35.56597
H         88.13752       51.63641       34.58677
H         87.09946       50.23081       34.18392
H         87.44016       50.65136       35.90703
H         86.82599       47.99532       34.47401
H         88.20575       47.21173       33.61579
H         87.58386       46.50345       35.12471
N         92.14334       49.02229       34.04130
C         93.33053       48.18500       33.92297
C         93.13280       46.84674       34.65427
O         93.16522       45.83341       33.97090
C         94.61731       48.96317       34.31489
C         94.89208       50.16165       33.43763
O         94.14018       50.47401       32.52702
O         95.98830       50.90807       33.67127
H         92.21031       49.87022       34.61064
H         93.48578       47.95307       32.84325
H         95.48833       48.27816       34.23154
H         94.57508       49.36482       35.33529
N         92.91028       46.70698       36.00046
C         92.87926       47.81978       36.93162
C         92.71896       47.43960       38.39361
O         92.52053       46.26911       38.68544
H         92.78336       45.74925       36.36164
H         92.06263       48.50626       36.63796
H         93.85343       48.27772       36.87987
N         92.79060       48.36159       39.41044
C         93.02250       49.80713       39.28818
C         91.94278       50.40832       38.39256
O         92.26353       50.92872       37.33331
C         94.48867       50.11787       38.87922
C         94.88448       51.55980       39.06080
O         94.01291       52.47408       39.52519
O         96.02627       51.90354       38.80027
H         92.64291       48.00937       40.36976
H         92.94252       50.25084       40.30433
H         94.70447       49.86087       37.83357
H         95.16016       49.51936       39.53267
N         90.61502       50.30038       38.70099
C         90.11448       49.84843       39.98498
C         89.44727       48.50506       39.92519
O         89.26601       47.92793       38.86258
H         89.91549       50.57601       38.00219
H         89.41735       50.60774       40.40038
H         90.92706       49.75207       40.72264
N         89.12887       47.91810       41.10789
C         88.59200       46.57313       41.24328
C         87.17962       46.40704       40.69111
O         86.72539       45.27400       40.62764
C         88.65680       46.10091       42.72401
C         87.72885       46.83128       43.72735
C         88.07276       48.27841       43.98678
N         89.27218       48.63106       44.50652
O         87.25742       49.14676       43.72571
H         89.39538       48.43864       41.94893
H         89.26537       45.90173       40.66375
H         89.70809       46.15713       43.08133
H         88.36936       45.02718       42.74170
H         87.78951       46.30626       44.70404
H         86.68290       46.75102       43.36659
H         89.98021       47.92012       44.73679
H         89.49550       49.62454       44.67164
N         86.41638       47.47223       40.30695
C         85.04536       47.34142       39.80834
C         84.03005       47.96616       40.75686
O         82.84685       47.87983       40.44860
C         84.90716       47.91811       38.37106
C         85.64528       47.03872       37.35832
C         85.38413       49.37370       38.25842
H         86.79946       48.42121       40.40495
H         84.74779       46.27065       39.75559
H         83.83199       47.88493       38.08495
H         86.73322       47.00759       37.57205
H         85.24582       46.00229       37.38868
H         85.47725       47.43133       36.33453
H         85.19009       49.76275       37.23627
H         84.84695       50.01637       38.98618
H         86.47582       49.44625       38.44125
N         84.38173       48.54172       41.94532
C         83.39696       49.00651       42.91919
C         83.54109       50.47870       43.29664
O         82.61227       50.99604       43.89882
C         83.53884       48.17022       44.21129
C         83.39762       46.68526       43.98215
N         82.24103       46.15801       43.52163
O         84.33814       45.94633       44.23270
H         85.37281       48.57647       42.21115
H         82.36801       48.87504       42.51883
H         82.78169       48.48597       44.96102
H         84.54786       48.36239       44.63888
H         81.43100       46.75955       43.31749
H         82.15444       45.14061       43.37825
N         84.70660       51.17306       43.11891
C         84.95017       52.47237       43.74534
C         85.74984       53.39487       42.84329
O         86.77445       52.97846       42.32379
C         85.76229       52.25443       45.04209
C         84.98333       51.48669       46.08605
C         83.81239       52.03286       46.64286
C         85.42212       50.22648       46.52251
C         83.09199       51.32690       47.61044
C         84.69690       49.51918       47.48631
C         83.53153       50.06502       48.03384
O         82.84637       49.37169       48.96541
H         85.51386       50.69809       42.69909
H         84.00190       52.97623       44.03104
H         86.03422       53.23508       45.48939
H         86.70788       51.72603       44.78856
H         83.45763       53.00761       46.33235
H         86.32076       49.78529       46.11428
H         82.19360       51.76214       48.03029
H         85.04260       48.54511       47.80811
H         82.03862       49.71610       49.37269
N         85.39164       54.71064       42.72383
C         86.19590       55.73894       42.05906
C         86.27803       55.58714       40.54800
O         86.97502       56.38616       39.93626
C         87.61242       55.84622       42.68321
C         87.56572       56.15180       44.18768
C         88.95085       56.31102       44.74711
O         89.38353       55.49124       45.72390
O         89.68691       57.19081       44.32840
H         84.54187       55.03285       43.21067
H         85.70361       56.72315       42.22854
H         88.15668       56.67701       42.18216
H         88.19731       54.91910       42.51038
H         87.05139       55.32632       44.72249
H         87.00072       57.09240       44.36392
N         85.56104       54.65098       39.86255
C         85.61218       54.52494       38.41079
C         84.27447       54.91898       37.82254
O         84.23529       55.86070       37.04202
C         86.00002       53.08622       38.01427
C         87.37004       52.63087       38.54958
C         88.52193       53.36979       37.93282
O         88.67516       54.56632       38.11547
O         89.41017       52.69737       37.18124
H         84.92726       54.01979       40.37249
H         86.35903       55.21939       37.97344
H         85.99681       52.98657       36.90588
H         85.23570       52.39148       38.42032
H         87.48800       51.55860       38.29265
H         87.41259       52.71762       39.65534
N         83.13242       54.25700       38.16068
C         81.82625       54.61252       37.64289
H         81.15717       54.87599       38.48835
H         81.86400       55.47869       36.94852
H         81.39815       53.74632       37.09779
H         83.17946       53.46754       38.82090
Ca        91.06009       53.81540       36.18142
O         94.20289       53.89565       36.24630
H         95.16256       53.91089       36.00428
H         94.09241       53.06240       36.76827
O         92.33995       56.24997       37.67986
H         92.71834       56.41608       38.57943
H         91.87454       57.09185       37.44581
O         91.32935       53.60956       39.40849
H         92.04282       54.21991       39.72096
H         90.87632       53.31106       40.23636

Ca 1.0



