%chk=apoCaM-CA-Ng.loop4.water4.frame810.chk
%nprocshared=20
%mem=10GB
%nosave
#b3lyp/svp scf=(tight,noincore,xqc) Test 
#IOP(5/87=12) Density=Current Pop=(MK,readradii) iop(6/33=2) iop(6/42=6)

apoCaM-CA-Ng.loop4.water4.frame810 

   -3  1 
C         76.55781       97.78988       74.53223
C         75.33520       98.56437       74.93095
O         74.37535       97.97102       75.39966
H         77.42192       98.13163       75.13950
H         76.41020       96.70199       74.69676
H         76.79648       97.95930       73.46523
N         75.32184       99.91931       74.79122
C         74.23411      100.79496       75.22001
C         74.04464      100.67333       76.72270
O         72.92838      100.47771       77.18696
C         72.92115      100.52237       74.43914
C         73.06326      100.63768       72.94616
O         72.09897      100.41102       72.23294
O         74.24005      100.96418       72.38014
H         76.15701      100.37347       74.38927
H         74.54576      101.84368       75.01463
H         72.14204      101.24377       74.76934
H         72.55527       99.49910       74.66679
N         75.12990      100.72962       77.54729
C         75.01820      100.53002       78.99033
C         74.55404      101.81342       79.67519
O         74.64116      102.86257       79.05147
C         76.36935      100.04962       79.61245
C         77.50328      101.10588       79.46436
C         76.77354       98.68610       79.02018
C         78.73830      100.79041       80.30760
H         76.05877      100.81882       77.11289
H         74.26867       99.72454       79.14504
H         76.19583       99.89231       80.69431
H         77.14144      102.09321       79.81928
H         77.80979      101.21611       78.40325
H         75.95642       97.94911       79.17203
H         76.98022       98.76466       77.93200
H         77.67460       98.28057       79.52135
H         78.45793      100.73569       81.38144
H         79.21611       99.83996       80.00029
H         79.48363      101.60459       80.18257
N         74.09045      101.86468       80.96129
C         73.74967      100.71675       81.80153
C         72.26055      100.80105       82.13028
O         71.63058      101.78779       81.76581
C         74.63547      100.72351       83.06607
C         74.44916       99.50427       83.92607
O         74.02876       99.63262       85.19879
O         74.68267       98.39256       83.47707
H         73.89230      102.79998       81.35299
H         73.91942       99.76907       81.25797
H         74.42559      101.64011       83.65783
H         75.70392      100.75048       82.76595
N         71.60184       99.79408       82.76969
C         70.17038       99.88263       82.98195
C         69.60155       98.62600       83.58694
O         69.74896       98.40686       84.78077
H         72.10076       98.93684       83.04403
H         69.69380      100.04869       81.99094
H         69.91252      100.75681       83.62075
N         68.89287       97.77214       82.79784
C         68.14416       96.62209       83.29373
C         68.94657       95.58180       84.06604
O         68.31166       94.80477       84.76622
C         67.35597       95.95844       82.13870
C         68.22402       95.58779       80.95485
O         69.24859       94.72830       81.08155
O         68.00563       96.08884       79.86335
H         68.82776       98.00023       81.79416
H         67.40385       97.02134       84.02309
H         66.59446       96.68678       81.78306
H         66.81560       95.06169       82.51035
N         70.30614       95.48553       84.02337
C         71.03931       94.53204       84.85115
C         70.75308       93.05866       84.57656
O         71.29016       92.24244       85.31119
H         70.84722       96.12990       83.42873
H         70.79517       94.74263       85.91580
H         72.13115       94.69372       84.71921
N         69.95544       92.63033       83.54855
C         69.63370       91.23163       83.25528
C         70.84085       90.37992       82.86134
O         70.63362       89.20076       82.60969
C         68.82481       90.59266       84.41930
C         67.42479       91.22292       84.59551
C         66.45295       90.89914       83.47487
N         65.19616       91.39886       83.50528
O         66.78138       90.17083       82.54920
H         69.53053       93.32331       82.93022
H         68.98668       91.20989       82.35377
H         69.39375       90.69085       85.36571
H         68.67462       89.50429       84.24866
H         67.52264       92.32232       84.70208
H         66.97663       90.82737       85.53215
H         64.88966       92.00963       84.27599
H         64.52593       91.17278       82.75446
N         72.10376       90.88836       82.72650
C         73.25263       90.08092       82.30681
C         73.85836       90.56946       80.99109
O         74.79356       89.93578       80.52040
C         74.33348       90.04478       83.42362
C         74.91433       91.43515       83.73959
C         73.77996       89.40082       84.70216
H         72.26932       91.88505       82.90741
H         72.93665       89.03081       82.12098
H         75.17031       89.40220       83.06927
H         74.14107       92.11720       84.14942
H         75.72422       91.34408       84.49363
H         75.35073       91.89449       82.82773
H         74.58079       89.32264       85.46794
H         72.94573       90.00041       85.12312
H         73.40933       88.37635       84.48483
N         73.39347       91.67572       80.34217
C         73.95681       92.19599       79.09858
C         72.87974       92.15868       78.01672
O         71.76735       91.74245       78.31944
C         74.47792       93.62125       79.41083
C         75.18983       94.30591       78.27414
N         74.74305       95.49037       77.79392
O         76.18737       93.79287       77.78883
H         72.60213       92.20347       80.73793
H         74.80956       91.57073       78.75472
H         75.20678       93.54749       80.24815
H         73.62788       94.24718       79.76041
H         73.90853       95.94440       78.19348
H         75.23600       95.95903       77.02036
N         73.11569       92.58850       76.73962
C         72.05918       92.64656       75.73350
C         72.51643       92.07255       74.39271
O         73.69757       91.79595       74.23202
C         71.67035       94.13368       75.57302
C         70.33938       94.31523       74.90011
C         70.24155       94.90582       73.63200
C         69.17226       93.89302       75.55934
C         68.99067       95.05456       73.02480
C         67.92461       94.05364       74.95739
C         67.82786       94.62916       73.68736
O         66.61536       94.76784       73.11592
H         74.03875       92.96676       76.49050
H         71.17999       92.06890       76.08943
H         72.49040       94.66137       75.03543
H         71.57924       94.61268       76.57374
H         71.13094       95.23561       73.10967
H         69.22951       93.44687       76.54548
H         68.92666       95.49952       72.04059
H         67.03360       93.72843       75.48001
H         66.50300       95.15433       72.23632
N         71.62874       91.90904       73.36611
C         72.01983       91.57624       71.99970
C         71.47660       92.65321       71.07042
O         70.30501       92.57303       70.72332
C         71.45237       90.20941       71.55568
C         72.08175       89.02003       72.28208
C         71.49328       87.73677       71.76280
O         70.17510       87.49339       71.89873
O         72.20328       86.91359       71.20731
H         70.62720       92.07504       73.54396
H         73.11830       91.51802       71.90309
H         71.66104       90.08002       70.46880
H         70.34855       90.19950       71.70270
H         71.90040       89.08864       73.37469
H         73.17927       89.02627       72.09851
N         72.18936       93.73819       70.65260
C         73.53881       94.10277       71.07227
C         74.58965       93.15086       70.53061
O         74.66306       92.96617       69.32333
C         73.83782       95.53558       70.57963
C         75.15658       96.09353       71.12639
C         75.35578       97.50098       70.64881
O         75.39239       98.51184       71.53283
O         75.47716       97.73807       69.45780
H         71.68308       94.40513       70.04672
H         73.56256       94.13197       72.18446
H         73.02032       96.20263       70.93573
H         73.84267       95.55800       69.46630
H         76.01949       95.47620       70.79781
H         75.11598       96.08351       72.23780
N         75.47280       92.55235       71.37976
C         76.54499       91.68121       70.94244
H         77.51815       92.11861       71.25224
H         76.43193       90.68656       71.42105
H         76.56100       91.54561       69.84081
H         75.40374       92.73953       72.39077
Ca        74.44704      100.91423       70.13644
O         75.46279      100.87483       67.31864
H         76.00465      100.08564       67.06626
H         76.12431      101.60014       67.44872
O         72.68115       98.70900       68.74901
H         73.08094       98.23861       67.97485
H         71.73262       98.42619       68.75007
O         74.81423      103.62906       69.32075
H         73.94308      104.06993       69.48478
H         75.34000      104.28900       68.80420
O         72.08315      101.79676       68.53873
H         71.41725      101.79363       67.80656
H         71.56560      102.03711       69.34804

Ca 1.0



