%chk=apoCaM-CA-Ng.loop4.water4.frame324.chk
%nprocshared=20
%mem=10GB
%nosave
#b3lyp/svp scf=(tight,noincore,xqc) Test 
#IOP(5/87=12) Density=Current Pop=(MK,readradii) iop(6/33=2) iop(6/42=6)

apoCaM-CA-Ng.loop4.water4.frame324 

   -3  1 
C         38.70041       62.85287       32.70650
C         39.17466       62.16629       31.46124
O         40.31926       62.36461       31.10103
H         37.64944       62.58904       32.94317
H         39.34494       62.54938       33.55933
H         38.77451       63.95283       32.57414
N         38.35684       61.32664       30.76366
C         38.74547       60.58667       29.56464
C         39.87571       59.61857       29.86608
O         40.94279       59.73693       29.29576
C         38.89173       61.49763       28.30939
C         39.93545       62.58848       28.27826
O         41.24247       62.31182       28.10123
O         39.57436       63.75398       28.23213
H         37.40186       61.17032       31.11980
H         37.88792       59.93289       29.28592
H         37.90113       61.98975       28.18508
H         39.04456       60.86045       27.41113
N         39.64957       58.61223       30.76857
C         40.54681       57.52635       31.19009
C         40.80896       56.52131       30.06404
O         40.34682       55.39406       30.17725
C         41.84242       58.02669       31.89117
C         42.66082       56.86183       32.53058
C         41.52074       59.08830       32.95785
C         41.97737       56.11852       33.68685
H         38.71888       58.60380       31.21523
H         39.97240       56.97292       31.96462
H         42.49107       58.51176       31.12924
H         43.61911       57.27417       32.91536
H         42.90695       56.10352       31.76406
H         41.04952       59.97889       32.49546
H         40.82236       58.69652       33.72503
H         42.45339       59.41676       33.45883
H         42.65879       55.32679       34.06373
H         41.75926       56.79958       34.53375
H         41.04186       55.62342       33.35841
N         41.51109       56.85045       28.94269
C         41.68491       55.95197       27.81015
C         42.68219       54.83570       28.08733
O         42.32019       53.69367       27.84208
C         42.07544       56.72524       26.52948
C         41.01259       57.72388       26.15222
O         39.75508       57.31154       25.89940
O         41.28453       58.90980       26.06429
H         41.90543       57.78805       28.85100
H         40.69899       55.49315       27.56170
H         42.17497       56.00602       25.68718
H         43.04416       57.24576       26.64427
N         43.95602       55.02519       28.55049
C         44.49505       56.28829       29.04240
C         45.92551       56.12796       29.53774
O         46.18093       55.12787       30.19445
H         44.55235       54.18496       28.61493
H         43.89429       56.59857       29.91006
H         44.39409       57.08037       28.30509
N         46.92017       57.06123       29.38340
C         46.81910       58.38280       28.77510
C         45.74970       59.22852       29.46531
O         44.73257       59.50058       28.84427
C         46.67732       58.28991       27.23068
C         46.78632       59.62826       26.53786
O         46.71068       59.68039       25.32116
O         46.97809       60.76742       27.23288
H         47.83668       56.83573       29.80245
H         47.79310       58.90105       28.91920
H         45.72744       57.82879       26.91568
H         47.49960       57.65014       26.84490
N         45.89340       59.75978       30.71770
C         47.06291       59.67227       31.57946
C         47.23262       58.33558       32.25423
O         46.43685       57.43472       32.04242
H         45.13696       60.36722       31.05380
H         46.93612       60.40830       32.40478
H         47.97506       59.96094       31.01674
N         48.24230       58.16959       33.15566
C         48.48976       56.91278       33.85664
C         48.00478       56.95291       35.29555
O         48.11757       55.93493       35.96554
C         49.98089       56.48665       33.76181
C         50.98316       57.28416       34.62830
C         51.17304       58.71514       34.21293
N         51.67126       59.02998       32.99587
O         50.88643       59.60548       34.99420
H         48.81588       58.99212       33.38117
H         47.90317       56.10523       33.36585
H         50.30418       56.47624       32.69884
H         50.04009       55.43809       34.12829
H         51.97659       56.78987       34.57253
H         50.65524       57.24106       35.69013
H         51.93425       58.29320       32.32653
H         51.80414       60.01675       32.72774
N         47.42581       58.06771       35.83288
C         46.90763       58.11871       37.19604
C         47.62393       59.17119       38.03360
O         47.27783       59.29145       39.20089
C         45.36940       58.35168       37.18977
C         44.64636       57.27745       36.35996
C         44.99059       59.74321       36.67807
H         47.32334       58.91330       35.25582
H         47.07582       57.14525       37.70734
H         44.99961       58.27227       38.23648
H         44.94753       57.32776       35.29112
H         44.87960       56.26499       36.75092
H         43.54653       57.42579       36.41529
H         43.88716       59.86807       36.70610
H         45.43898       60.53563       37.31339
H         45.34541       59.87914       35.64149
N         48.64175       59.94411       37.53451
C         49.37563       60.90220       38.35725
C         49.38847       62.32639       37.79222
O         49.75719       63.21541       38.54814
C         50.83213       60.41867       38.52615
C         50.93015       58.99469       39.01863
N         50.43492       58.63393       40.22384
O         51.47097       58.15459       38.31411
H         48.95866       59.80364       36.56909
H         48.91174       60.95979       39.36565
H         51.37863       61.08713       39.22599
H         51.33665       60.46681       37.54129
H         49.97969       59.32435       40.83678
H         50.51026       57.65681       40.54445
N         49.10928       62.62534       36.48202
C         49.25029       63.97697       35.93004
C         48.02307       64.41861       35.14289
O         47.60606       63.71379       34.23494
C         50.46615       64.08443       34.98152
C         51.79134       63.92218       35.68787
C         52.56146       65.05073       36.02197
C         52.28108       62.64963       36.00167
C         53.79137       64.90253       36.66993
C         53.51523       62.49820       36.64164
C         54.27373       63.62334       36.98075
O         55.46127       63.46443       37.59928
H         48.87359       61.86963       35.82440
H         49.44129       64.71984       36.73583
H         50.44441       65.11462       34.56307
H         50.39785       63.39199       34.11380
H         52.20653       66.04739       35.79085
H         51.70995       61.77941       35.73337
H         54.36807       65.78203       36.92753
H         53.88303       61.50581       36.87071
H         56.01628       64.21739       37.84846
N         47.49447       65.66196       35.36083
C         46.49003       66.32554       34.52438
C         45.10311       65.71563       34.56347
O         44.24050       66.26129       33.88639
C         46.94747       66.45093       33.05037
C         48.25984       67.22242       32.88735
C         48.58735       67.38287       31.42960
O         48.67596       68.61339       30.88951
O         48.76531       66.40112       30.72570
H         47.90143       66.23459       36.11622
H         46.36541       67.36243       34.91248
H         46.16806       67.01291       32.48742
H         47.03547       65.44754       32.58388
H         49.08960       66.68662       33.39043
H         48.15385       68.22835       33.34905
N         44.76942       64.65334       35.34827
C         43.40421       64.13998       35.38753
C         42.68565       64.59589       36.64666
O         41.50904       64.28861       36.78157
C         43.39712       62.60662       35.28333
C         44.20498       62.02356       34.11244
C         43.72454       62.43626       32.75865
O         43.80938       63.59332       32.38377
O         43.23464       61.49686       31.93532
H         45.46675       64.24015       35.98447
H         42.81048       64.54287       34.53865
H         42.34517       62.24860       35.21581
H         43.83630       62.20304       36.21798
H         44.10933       60.92219       34.16921
H         45.28086       62.27593       34.21202
N         43.31073       65.35261       37.59816
C         42.65089       65.84542       38.78799
H         41.58105       65.55501       38.83261
H         43.16708       65.44465       39.68462
H         42.71349       66.95403       38.80232
H         44.30125       65.61246       37.49398
Ca        42.60902       61.90613       29.82951
O         43.36478       64.58009       27.35125
H         42.42266       64.87288       27.26584
H         43.68194       64.48901       26.41782
O         41.93512       65.14180       30.22365
H         42.88781       64.87221       30.21648
H         41.59864       64.84567       31.10646
O         45.49264       63.07470       29.51608
H         45.50651       62.58913       28.65345
H         46.38450       62.90601       29.91141
O         43.63896       61.23759       26.62030
H         43.07968       60.55772       27.07271
H         43.71298       60.91480       25.68767

Ca 1.0



