%chk=apoCaM-CA-Ng.loop1.water2.frame1298.chk
%nprocshared=20
%mem=10GB
%nosave
#b3lyp/svp scf=(tight,noincore,xqc) Test 
#IOP(5/87=12) Density=Current Pop=(MK,readradii) iop(6/33=2) iop(6/42=6)

apoCaM-CA-Ng.loop1.water2.frame1298 

   0  1 
C         67.70953       29.90020       64.58515
C         68.12589       28.86734       65.58789
O         67.29259       28.43251       66.37084
H         66.63373       30.15267       64.70587
H         68.30734       30.82460       64.73308
H         67.87583       29.51322       63.55923
N         69.42392       28.44974       65.64006
C         69.91229       27.49905       66.63523
C         70.84200       28.21352       67.59264
O         71.94443       27.75622       67.86355
C         70.54263       26.25138       65.97329
C         71.75550       26.54524       65.12384
O         72.94961       26.01760       65.45476
O         71.66369       27.23221       64.11942
H         70.09622       28.87637       64.98627
H         69.06575       27.14017       67.25967
H         69.78090       25.74409       65.34415
H         70.83865       25.54619       66.78074
N         70.43114       29.38731       68.13749
C         71.22195       30.15368       69.08225
C         71.24818       29.47088       70.44264
O         72.34961       29.22634       70.91466
C         70.78005       31.63629       69.10752
C         70.99703       32.24430       67.70062
C         70.74890       33.75346       67.63099
C         70.92728       34.30694       66.19941
N         72.28825       34.13076       65.68120
H         69.52784       29.77471       67.82709
H         72.27380       30.19912       68.71462
H         71.42521       32.18180       69.83108
H         69.72267       31.75313       69.42539
H         70.32932       31.74270       66.96782
H         72.05045       32.05526       67.40783
H         71.44334       34.27977       68.32135
H         69.70612       33.96186       67.95325
H         70.69111       35.39338       66.21614
H         70.20477       33.81267       65.51210
H         72.51145       33.11967       65.54354
H         72.35865       34.59575       64.74718
H         72.98392       34.56792       66.32787
N         70.14611       29.06310       71.14578
C         68.74294       29.18506       70.74702
C         68.14049       27.80875       70.46313
O         68.80601       26.80023       70.65934
C         67.95977       29.98069       71.80820
C         68.18785       29.46877       73.19870
O         67.89299       28.32541       73.50280
O         68.77167       30.27528       74.10412
H         70.33006       28.57248       72.03518
H         68.64341       29.74640       69.80775
H         66.87369       29.98832       71.57600
H         68.31768       31.03286       71.78104
N         66.90703       27.71175       69.88171
C         66.36665       26.46151       69.36087
C         65.93754       25.46045       70.40768
O         65.96371       25.75253       71.59446
H         66.38668       28.57729       69.67462
H         67.13509       25.99875       68.70330
H         65.47463       26.67725       68.73504
N         65.55413       24.21380       69.99807
C         65.21415       23.12298       70.90610
C         64.09102       22.25136       70.34769
O         64.10150       21.98090       69.15521
C         66.45106       22.22791       71.09486
C         67.54758       22.98472       71.78036
O         67.27845       23.53546       72.97453
O         68.66106       23.07648       71.28990
H         65.64343       23.99335       68.99392
H         64.93492       23.51975       71.90481
H         66.79938       21.81421       70.12320
H         66.18127       21.37566       71.75788
N         63.17033       21.62942       71.14597
C         63.09397       21.79039       72.58787
C         62.41075       23.07921       72.96220
O         61.87987       23.74933       72.08770
H         62.52289       20.95338       70.71046
H         64.10382       21.69725       73.03891
H         62.46908       20.97714       73.01802
N         62.32102       23.43966       74.27468
C         61.50915       24.56059       74.74605
C         62.20270       25.92496       74.66090
O         62.20105       26.64851       75.64376
C         60.91497       24.26783       76.15825
C         61.96098       24.06300       77.26985
O         60.09999       23.12591       76.08220
H         62.72058       22.78434       74.96019
H         60.61907       24.64048       74.08183
H         60.28520       25.15041       76.42883
H         59.37903       23.23589       76.75670
H         61.43972       23.93433       78.24232
H         62.57117       23.15396       77.10159
H         62.64458       24.92899       77.35986
N         62.69992       26.40246       73.48452
C         63.07825       27.80172       73.30197
C         64.28454       28.15560       74.15297
O         65.33024       27.54687       73.98876
C         63.32070       28.16362       71.79994
C         62.20232       27.65779       70.83861
C         63.48982       29.68884       71.64768
C         60.77491       28.03632       71.24508
H         62.70921       25.78859       72.67272
H         62.20732       28.41518       73.62310
H         64.26307       27.69163       71.45310
H         62.23945       26.55317       70.75500
H         62.40518       28.03739       69.81393
H         63.68783       29.95161       70.58698
H         62.57771       30.22704       71.98180
H         64.34600       30.05641       72.24992
H         60.51438       27.59004       72.22799
H         60.64418       29.13507       71.29192
H         60.06286       27.62745       70.49752
N         64.18886       29.14228       75.08829
C         65.27618       29.55072       75.97456
C         64.93935       29.25083       77.43287
O         65.73498       29.59656       78.29489
C         65.59606       31.05751       75.77661
C         64.43084       31.99495       76.12689
O         65.97765       31.27927       74.44360
H         63.28237       29.62077       75.19267
H         66.20425       28.98891       75.73838
H         66.44804       31.30175       76.45757
H         66.67948       31.98237       74.45174
H         64.10595       31.84727       77.17804
H         64.75628       33.05062       76.01184
H         63.56591       31.83369       75.45176
N         63.77879       28.62480       77.78823
C         63.37450       28.38401       79.16768
C         64.37299       27.46364       79.86323
O         64.44119       26.28889       79.52874
C         61.93650       27.79602       79.18548
C         61.38304       27.59535       80.59215
O         61.06856       28.66364       78.49419
H         63.12649       28.34245       77.05140
H         63.35040       29.37242       79.67829
H         61.95844       26.79615       78.68869
H         60.74800       28.18968       77.68138
H         62.01608       26.89132       81.16965
H         61.32744       28.56883       81.12283
H         60.35892       27.16848       80.52112
N         65.22792       27.97083       80.80148
C         66.27963       27.21837       81.48645
C         67.12686       26.44167       80.48222
O         67.25681       25.22938       80.58277
C         65.68114       26.36840       82.63225
C         66.77788       25.78532       83.54658
C         66.19354       25.07050       84.76979
C         67.32145       24.49427       85.64064
N         66.78785       23.82989       86.82845
H         65.18600       28.98327       80.99454
H         66.94043       27.96731       81.97841
H         65.02959       25.56270       82.22961
H         65.05209       27.04373       83.25441
H         67.42793       26.61366       83.90609
H         67.40679       25.06721       82.98370
H         65.52629       24.24559       84.43825
H         65.59894       25.79514       85.36884
H         68.00525       25.31312       85.95873
H         67.90942       23.76098       85.04430
H         66.15055       23.04915       86.54963
H         67.58188       23.43683       87.38423
H         66.26902       24.51786       87.42119
N         67.67082       27.09978       79.42440
C         68.36606       26.42224       78.33722
C         68.36629       27.30505       77.09923
O         67.80232       26.86964       76.10549
C         69.80337       25.96522       78.72054
C         70.48897       25.17115       77.58762
C         69.89675       23.79934       77.47864
O         70.00796       23.02650       78.41584
O         69.20440       23.39935       76.40197
H         67.46187       28.10406       79.33926
H         67.77407       25.51373       78.07686
H         69.78725       25.34764       79.64457
H         70.44499       26.83320       78.94069
H         71.56865       25.04421       77.81672
H         70.41999       25.72888       76.62836
N         68.95144       28.53727       77.02120
C         69.63290       29.25723       78.07890
H         70.69052       29.42104       77.78331
H         69.14444       30.24353       78.21708
H         69.61076       28.75480       79.05813
H         68.90566       29.02180       76.11883
Ca        68.71727       24.38598       74.45467
O         65.30998       24.37025       75.19881
H         65.80545       24.42390       76.05436
H         65.30583       23.40555       74.97501
O         71.11581       26.19982       73.16022
H         71.32155       25.72979       74.00703
H         70.78054       25.49042       72.55610

Ca 1.0



