%chk=apoCaM-CA-Ng.loop1.water5.frame523.chk
%nprocshared=20
%mem=10GB
%nosave
#b3lyp/svp scf=(tight,noincore,xqc) Test 
#IOP(5/87=12) Density=Current Pop=(MK,readradii) iop(6/33=2) iop(6/42=6)

apoCaM-CA-Ng.loop1.water5.frame523 

   0  1 
C         84.06570       22.48362       40.59781
C         83.46212       23.48298       39.64932
O         83.62690       24.67428       39.86290
H         85.16569       22.62010       40.64277
H         83.63754       22.62833       41.61218
H         83.85491       21.43949       40.28042
N         82.72699       23.05544       38.58387
C         82.04653       23.91066       37.61230
C         83.01949       24.66291       36.70841
O         84.19990       24.75656       37.01606
C         81.00793       24.82004       38.30673
C         80.10129       25.53336       37.34560
O         79.37270       24.89738       36.60010
O         80.07418       26.87917       37.31486
H         82.60774       22.03753       38.45972
H         81.49755       23.20879       36.94305
H         81.52746       25.57069       38.93672
H         80.36853       24.19486       38.96693
N         82.58203       25.10104       35.48731
C         83.39681       25.65058       34.40080
C         84.30984       24.61857       33.74610
O         84.80666       24.90154       32.66414
C         84.15265       26.93155       34.79516
C         83.18171       28.04159       35.21508
C         83.94039       29.32379       35.58034
C         83.00897       30.47035       36.00834
N         82.15010       30.93242       34.91507
H         81.58418       24.98332       35.26439
H         82.68397       25.92211       33.58767
H         84.72659       27.29349       33.91271
H         84.87763       26.71885       35.60817
H         82.58569       27.70929       36.09223
H         82.49506       28.23532       34.36457
H         84.56123       29.65943       34.72074
H         84.61935       29.09544       36.43089
H         83.64454       31.32019       36.34150
H         82.38442       30.15032       36.87163
H         81.59971       31.75835       35.24331
H         82.73326       31.22240       34.09647
H         81.47502       30.18964       34.62747
N         84.54552       23.39633       34.30069
C         85.24711       22.31462       33.64183
C         84.32549       21.10472       33.76270
O         84.17219       20.63911       34.88406
C         86.58722       22.07894       34.37462
C         87.38814       20.99394       33.73113
O         87.82678       21.15511       32.47280
O         87.63641       19.96328       34.33591
H         84.18354       23.16802       35.22796
H         85.47497       22.58585       32.59385
H         86.39007       21.82398       35.43935
H         87.19396       23.01003       34.35581
N         83.57447       20.57601       32.75550
C         83.51364       20.99234       31.36840
C         83.72865       19.77091       30.52344
O         82.78893       19.31979       29.88307
H         82.92984       19.81062       33.01246
H         84.22762       21.78880       31.09417
H         82.48851       21.38290       31.18114
N         84.94344       19.15763       30.50797
C         85.18176       17.87657       29.84775
C         85.84139       16.90364       30.81781
O         86.35994       17.32467       31.84395
C         86.00812       18.08290       28.55910
C         87.32302       18.74222       28.84979
O         88.23679       18.12570       29.61877
O         87.51477       19.89626       28.49947
H         85.72464       19.61378       31.00497
H         84.20911       17.43150       29.54261
H         85.41493       18.74775       27.89114
H         86.17484       17.12347       28.02738
N         85.83735       15.56710       30.55604
C         86.48000       14.56440       31.39958
C         85.93308       14.41883       32.81843
O         86.42479       13.54746       33.52104
H         85.37946       15.23983       29.69142
H         87.56658       14.78753       31.45659
H         86.36283       13.57633       30.90316
N         84.93687       15.20702       33.31819
C         84.37895       15.07251       34.66881
C         85.41544       15.26375       35.77874
O         86.56718       15.56427       35.50136
C         83.23075       16.11494       34.86499
C         83.75186       17.56137       34.90855
O         82.28714       16.00596       33.83130
H         84.51877       15.91345       32.70359
H         83.94939       14.05101       34.76155
H         82.71243       15.94960       35.83538
H         81.77298       15.17438       33.99857
H         82.90159       18.25904       35.05372
H         84.45011       17.70984       35.76054
H         84.28221       17.83329       33.97257
N         85.02450       15.18727       37.08515
C         85.88093       15.59625       38.19789
C         86.98677       14.59733       38.51840
O         87.81257       14.90712       39.36453
C         85.03538       15.90893       39.47812
C         84.37175       14.63771       40.08098
C         84.00306       17.01744       39.17487
C         83.62246       14.90283       41.38947
H         84.04105       14.95477       37.27477
H         86.36678       16.55523       37.90666
H         85.73359       16.31848       40.24211
H         85.16419       13.89334       40.31037
H         83.66581       14.17454       39.36103
H         83.49185       17.35433       40.09827
H         84.51078       17.90608       38.74414
H         83.22757       16.67490       38.45883
H         82.74992       15.56766       41.22709
H         83.23824       13.94381       41.79663
H         84.30194       15.35948       42.14000
N         87.03518       13.36593       37.93457
C         88.00270       12.33964       38.30217
C         87.24383       11.19257       38.93239
O         86.32994       10.66747       38.31475
C         88.81187       11.87972       37.06649
C         89.73517       12.99630       36.56118
O         89.57885       10.73617       37.36061
H         86.32090       13.10512       37.24049
H         88.73471       12.71868       39.04878
H         88.10228       11.60421       36.25614
H         90.14911       10.94150       38.14713
H         89.15343       13.90257       36.29333
H         90.47269       13.26669       37.34925
H         90.29328       12.65082       35.66596
N         87.57735       10.77496       40.18803
C         86.88613        9.71924       40.92128
C         87.51808        9.55974       42.29569
O         86.80289        9.64289       43.28485
C         86.88348        8.35596       40.16365
C         86.12020        7.27618       40.94773
O         88.19484        7.92406       39.90923
H         88.36049       11.25443       40.65771
H         85.82191       10.01991       41.05367
H         86.34383        8.48506       39.20154
H         88.14984        7.29774       39.13977
H         86.61290        7.05996       41.91926
H         85.07683        7.60743       41.14034
H         86.08349        6.33412       40.36126
N         88.85151        9.29110       42.42136
C         89.47745        8.92622       43.68210
C         90.57927        9.88930       44.06952
O         91.39630       10.25124       43.23284
C         90.04964        7.50771       43.53712
C         90.42605        6.89616       44.89406
C         90.91722        5.45870       44.71360
C         91.07105        4.74863       46.06295
N         91.51992        3.37053       45.86995
H         89.44164        9.26968       41.57546
H         88.71635        8.89011       44.49222
H         90.91832        7.50966       42.84052
H         89.25583        6.86334       43.09917
H         89.51057        6.88791       45.52657
H         91.20951        7.49593       45.40671
H         91.88597        5.46829       44.16718
H         90.17302        4.89118       44.11356
H         90.08492        4.73889       46.58074
H         91.79866        5.29282       46.70461
H         92.46961        3.36301       45.43235
H         91.56600        2.89058       46.79731
H         90.84646        2.85450       45.25733
N         90.71940       10.24898       45.37488
C         91.81512       11.06831       45.86144
C         91.70624       12.49440       45.33501
O         92.66580       12.94220       44.72369
C         91.97166       11.06699       47.40737
C         92.31533        9.69721       48.04796
C         91.13732        8.90371       48.56146
O         90.29905        8.43766       47.81206
O         91.03207        8.66664       49.88401
H         90.04740        9.87091       46.04776
H         92.76963       10.62619       45.48957
H         91.14184       11.55703       47.95666
H         92.87400       11.69825       47.57735
H         92.92552        9.91495       48.95123
H         92.95344        9.08700       47.37137
N         90.61171       13.29860       45.49931
C         89.36138       12.93179       46.13611
H         88.54220       13.01505       45.38998
H         89.34565       11.90936       46.53924
H         89.15200       13.62454       46.97566
H         90.65401       14.25359       45.11076
Ca        88.67394       19.39443       31.39125
O         91.49730       18.07451       33.57728
H         92.41126       18.23627       33.23353
H         91.50561       17.12596       33.86124
O         88.63129       17.06626       34.12452
H         89.06512       16.74085       34.95310
H         88.36614       16.24232       33.64402
O         90.02318       16.37929       31.35512
H         90.32968       15.67275       31.97727
H         90.26370       16.04103       30.45654
O         91.64175       19.46415       30.39253
H         91.44543       20.41233       30.18541
H         92.39557       19.50208       31.03313
O         90.75356       21.33155       32.78130
H         90.54714       22.06219       32.14531
H         90.92939       21.79057       33.64020

Ca 1.0



