%chk=apoCaM-CA-Ng.loop1.water5.frame632.chk
%nprocshared=20
%mem=10GB
%nosave
#b3lyp/svp scf=(tight,noincore,xqc) Test 
#IOP(5/87=12) Density=Current Pop=(MK,readradii) iop(6/33=2) iop(6/42=6)

apoCaM-CA-Ng.loop1.water5.frame632 

   0  1 
C        -19.10172       12.83771        8.78960
C        -20.53648       12.89780        8.35615
O        -20.82898       13.59631        7.39572
H        -18.75220       13.85483        9.06384
H        -18.96933       12.16621        9.66371
H        -18.48069       12.45363        7.95278
N        -21.49271       12.17166        9.00460
C        -22.89013       12.16305        8.57962
C        -23.54130       13.53751        8.70862
O        -22.91696       14.47382        9.18989
C        -23.69690       11.06821        9.31657
C        -23.92326       11.34495       10.77568
O        -22.88765       11.46879       11.62701
O        -25.06393       11.43140       11.19892
H        -21.19952       11.56570        9.78486
H        -22.90004       11.87716        7.50382
H        -23.17484       10.09367        9.20618
H        -24.68811       10.95945        8.82483
N        -24.80493       13.72678        8.23985
C        -25.45351       15.03502        8.17216
C        -25.67331       15.70903        9.52292
O        -25.95699       16.89913        9.52191
C        -26.77368       14.91005        7.37710
C        -27.84066       14.06699        8.11595
C        -29.01482       13.64744        7.21453
C        -28.60073       12.56935        6.19008
N        -29.74271       12.12662        5.39207
H        -25.28199       12.91504        7.82059
H        -24.77075       15.68782        7.58394
H        -26.50070       14.44175        6.41047
H        -27.20062       15.91086        7.14749
H        -28.22392       14.67463        8.96443
H        -27.40887       13.13901        8.54654
H        -29.44803       14.53639        6.70723
H        -29.79812       13.20166        7.86583
H        -28.18359       11.69259        6.73584
H        -27.81713       12.94953        5.50350
H        -30.49004       11.73875        6.01229
H        -30.12070       12.92613        4.83448
H        -29.42766       11.37503        4.73599
N        -25.60609       15.02324       10.70282
C        -25.81387       15.64834       12.00726
C        -24.65707       15.36718       13.01263
O        -23.82694       14.31033       12.64138
C        -27.20967       15.28760       12.58726
C        -27.74385       13.86071       12.50061
O        -28.79598       13.67641       11.90903
O        -27.16742       12.79867       13.10340
H        -25.45604       14.00559       10.68057
H        -25.85537       16.75056       11.90125
H        -27.93759       15.90635       12.01390
H        -27.26427       15.64362       13.63855
N        -23.85774       16.52875       13.42132
C        -24.61355       17.44332       14.29427
C        -25.04285       18.64700       13.50700
O        -26.22680       18.94451       13.44431
H        -23.06706       16.15329       13.99641
H        -23.94540       17.81948       15.10214
H        -25.47318       16.93992       14.79260
N        -24.09632       19.37580       12.85590
C        -24.38392       20.55954       12.04634
C        -23.15597       20.99319       11.24673
O        -22.09509       20.40037       11.38716
C        -24.92182       21.70608       12.93979
C        -23.99218       22.04726       14.07485
O        -24.40964       21.90482       15.34799
O        -22.86465       22.45874       13.85402
H        -23.12549       19.03900       12.93633
H        -25.15477       20.29323       11.29027
H        -25.89751       21.40399       13.37315
H        -25.11257       22.61639       12.33442
N        -23.23336       22.02154       10.35388
C        -22.08320       22.44597        9.57108
C        -21.62732       21.41546        8.55134
O        -20.57105       21.61870        7.96994
H        -24.11956       22.53536       10.24126
H        -21.25116       22.67307       10.27245
H        -22.32248       23.38012        9.01913
N        -22.37854       20.31898        8.23363
C        -21.94900       19.33356        7.24588
C        -20.78556       18.53052        7.79479
O        -20.90773       17.94226        8.86068
C        -23.10104       18.37571        6.84584
C        -24.28047       19.12549        6.20554
O        -22.63346       17.39625        5.94809
H        -23.30019       20.19655        8.67535
H        -21.65141       19.86202        6.31120
H        -23.47071       17.85290        7.75386
H        -22.29205       17.86190        5.13854
H        -25.07318       18.40243        5.92022
H        -24.72073       19.86254        6.90696
H        -23.94814       19.66387        5.29109
N        -19.63185       18.43416        7.08296
C        -18.46775       17.68258        7.54104
C        -17.85644       18.38123        8.74025
O        -17.50118       17.72959        9.71224
C        -17.39374       17.55877        6.40805
C        -17.95311       16.95326        5.08794
C        -16.17791       16.73497        6.88689
C        -18.61404       15.57950        5.23069
H        -19.58804       18.91518        6.17326
H        -18.76639       16.64673        7.81476
H        -17.01794       18.57538        6.15273
H        -17.12364       16.87609        4.35095
H        -18.70140       17.63792        4.64082
H        -16.47804       15.70957        7.18737
H        -15.41737       16.66305        6.08040
H        -15.68511       17.21691        7.75646
H        -18.96142       15.23850        4.23285
H        -17.90442       14.82545        5.62546
H        -19.50208       15.63872        5.89279
N        -17.67691       19.72763        8.69759
C        -16.92456       20.50415        9.67212
C        -15.84584       21.25993        8.90090
O        -15.79897       21.15221        7.68042
C        -17.89174       21.46443       10.42393
C        -18.93002       20.68096       11.23039
O        -17.18757       22.28222       11.32223
H        -18.06811       20.24416        7.89358
H        -16.42912       19.84388       10.41809
H        -18.41303       22.09582        9.66534
H        -17.66757       23.15030       11.37296
H        -19.60122       21.38911       11.76125
H        -19.54405       20.03642       10.56972
H        -18.42486       20.04633       11.99081
N        -14.96570       22.07856        9.53398
C        -14.03914       22.93276        8.80986
C        -12.62309       22.75022        9.32687
O        -11.73743       22.45146        8.53845
C        -14.55284       24.39462        8.91011
C        -13.71506       25.37220        8.08374
O        -14.60336       24.82019       10.24751
H        -15.00483       22.16803       10.55726
H        -14.04005       22.69176        7.72267
H        -15.58585       24.39526        8.48340
H        -15.34498       25.47636       10.32094
H        -13.71628       25.06714        7.01565
H        -14.15367       26.39076        8.15528
H        -12.66992       25.40684        8.45184
N        -12.33551       22.98610       10.63690
C        -10.98305       23.07978       11.16947
C        -10.84432       22.27613       12.44823
O        -11.68790       22.39731       13.32653
C        -10.65741       24.57656       11.35436
C        -11.54236       25.31953       12.37953
C        -11.45667       26.84877       12.24776
C        -12.14426       27.35232       10.95893
N        -12.16357       28.81075       10.89709
H        -13.10944       23.23295       11.26563
H        -10.23759       22.71757       10.42661
H        -10.78614       25.01451       10.34553
H         -9.59020       24.71397       11.63505
H        -11.22082       25.00928       13.39683
H        -12.61361       25.06232       12.27568
H        -10.39849       27.18490       12.29434
H        -12.00281       27.28714       13.11084
H        -13.19387       26.98402       10.93955
H        -11.62956       26.97162       10.05424
H        -11.18626       29.18055       10.87490
H        -12.65926       29.10402       10.02355
H        -12.67725       29.19851       11.72113
N         -9.76571       21.46537       12.64289
C         -9.57785       20.69582       13.86754
C        -10.59957       19.56469       13.95754
O        -11.36320       19.57799       14.91252
C         -8.11834       20.21057       14.02051
C         -7.15380       21.39408       14.20922
C         -5.73735       20.91797       14.35378
O         -4.88421       21.28142       13.55999
O         -5.39788       20.09658       15.36581
H         -9.03163       21.43862       11.91875
H         -9.74377       21.36963       14.74078
H         -7.78912       19.63206       13.14109
H         -8.04935       19.56254       14.92260
H         -7.43131       21.96134       15.12443
H         -7.22190       22.08196       13.33901
N        -10.73639       18.56091       13.03927
C         -9.93711       18.39677       11.84398
H         -8.88732       18.16947       12.09861
H        -10.31069       17.52573       11.26487
H        -10.00899       19.29323       11.19635
H        -11.48278       17.86491       13.19417
Ca       -25.03397       12.78052       13.68263
O        -23.18472       10.30256       15.14923
H        -22.51401       10.23201       15.87441
H        -23.09380        9.45623       14.64349
O        -26.46664       11.38903       16.00878
H        -26.40496       11.64164       16.96377
H        -27.40554       11.58145       15.75977
O        -26.08797        9.59121       13.43191
H        -27.02825        9.82727       13.63310
H        -26.13464        9.09877       12.57426
O        -21.93653       13.11294       14.76410
H        -21.06772       12.67010       14.93492
H        -21.70649       14.06553       14.62431
O        -24.75444       14.44838       16.16680
H        -25.71157       14.38515       16.41248
H        -24.26729       14.32081       17.01883

Ca 1.0



