%chk=apoCaM-CA-Ng.loop4.water3.frame153.chk
%nprocshared=20
%mem=10GB
%nosave
#b3lyp/svp scf=(tight,noincore,xqc) Test 
#IOP(5/87=12) Density=Current Pop=(MK,readradii) iop(6/33=2) iop(6/42=6)

apoCaM-CA-Ng.loop4.water3.frame153 

   -3  1 
C         51.23760       42.47345       60.45238
C         50.79315       41.16584       61.03178
O         51.63584       40.32796       61.29444
H         52.34200       42.48918       60.32304
H         50.75561       42.63475       59.46722
H         50.95470       43.29452       61.14459
N         49.47325       40.94157       61.28739
C         48.93093       39.75023       61.93787
C         49.46615       39.64306       63.35360
O         50.08253       38.65738       63.70983
C         48.98086       38.48150       61.03895
C         50.31175       37.91531       60.60856
O         51.10275       37.25696       61.47736
O         50.60107       37.90293       59.42256
H         48.80573       41.69371       61.05759
H         47.83740       39.91776       62.06793
H         48.41507       38.74403       60.11751
H         48.41775       37.66367       61.53922
N         49.21117       40.67908       64.20837
C         49.59704       40.84173       65.61230
C         48.93867       39.80165       66.51347
O         48.02939       40.17186       67.24436
C         51.13101       40.98540       65.82413
C         51.47791       41.44802       67.26909
C         51.75284       41.95154       64.79801
C         50.93526       42.83005       67.67451
H         48.66623       41.46495       63.81859
H         49.15481       41.82102       65.89415
H         51.61299       39.99735       65.65921
H         52.58184       41.49225       67.35880
H         51.10641       40.69893       68.00054
H         51.61926       41.56063       63.77022
H         51.28504       42.95591       64.84425
H         52.84522       42.05083       64.97444
H         51.31849       43.62668       67.00478
H         49.82825       42.86022       67.67945
H         51.26807       43.07025       68.70548
N         49.31373       38.48797       66.51190
C         48.56927       37.46446       67.23033
C         48.98027       37.39480       68.70060
O         48.11311       37.65105       69.52423
C         48.59556       36.13063       66.44967
C         47.69725       35.09369       67.06419
O         46.50063       35.30798       67.18142
O         48.20293       33.91133       67.46205
H         50.09454       38.18145       65.92295
H         47.49214       37.75363       67.19804
H         49.61857       35.73163       66.34959
H         48.23230       36.32141       65.41548
N         50.23220       37.08966       69.16434
C         51.38261       36.74230       68.33708
C         52.65066       36.48244       69.15102
O         52.61613       36.64796       70.36212
H         50.34597       37.10528       70.18902
H         51.58565       37.57126       67.63228
H         51.13546       35.82021       67.80633
N         53.84340       36.08775       68.60174
C         54.14330       35.80238       67.19888
C         53.85281       37.02575       66.33507
O         53.00060       36.94491       65.46191
C         53.45113       34.48948       66.74574
C         54.00088       33.91658       65.46490
O         53.54552       32.86898       65.03472
O         55.01006       34.51514       64.80419
H         54.63699       35.97944       69.25388
H         55.23144       35.57664       67.13182
H         52.36416       34.61987       66.62005
H         53.62315       33.71921       67.52895
N         54.48070       38.22586       66.52908
C         55.57022       38.45491       67.46380
C         55.18940       39.41389       68.56180
O         54.09118       39.95017       68.56929
H         54.17925       39.03255       65.96845
H         56.45011       38.84978       66.91128
H         55.89522       37.51853       67.94819
N         56.06289       39.61357       69.58481
C         55.74908       40.41163       70.76503
C         55.80232       41.92301       70.53981
O         55.49552       42.64314       71.47599
C         56.69713       40.03665       71.93039
C         58.17690       40.38398       71.67172
C         59.01835       40.03986       72.87177
N         60.01081       39.12437       72.78361
O         58.80371       40.59783       73.93764
H         56.93311       39.06187       69.56166
H         54.72330       40.13500       71.09954
H         56.60754       38.94486       72.12720
H         56.35573       40.57012       72.84473
H         58.28459       41.46834       71.46706
H         58.55491       39.83528       70.78571
H         60.20586       38.63739       71.89714
H         60.58514       38.89655       73.60848
N         56.23048       42.47455       69.36485
C         56.42570       43.92059       69.18816
C         57.89033       44.26003       68.90635
O         58.19091       45.44317       68.77367
C         55.48219       44.48484       68.09388
C         54.01811       44.36250       68.53101
C         55.68416       43.81445       66.73060
H         56.47284       41.85691       68.58085
H         56.18223       44.46379       70.12694
H         55.69537       45.57141       67.97830
H         53.73636       43.29810       68.66817
H         53.85836       44.89926       69.49083
H         53.35267       44.82085       67.76946
H         55.03216       44.29190       65.96846
H         56.73894       43.91742       66.40230
H         55.41861       42.74024       66.78248
N         58.86156       43.30656       68.84921
C         60.28367       43.58554       68.68349
C         60.85650       42.89275       67.45751
O         61.57851       43.52612       66.70399
C         61.05183       43.08723       69.92588
C         60.63965       43.79776       71.19126
N         60.81305       45.13358       71.32621
O         60.16304       43.15639       72.11452
H         58.60132       42.32080       68.99157
H         60.48149       44.67670       68.58269
H         62.14225       43.25358       69.78236
H         60.88482       41.99412       70.04554
H         61.22969       45.69372       70.56910
H         60.53848       45.60944       72.19846
N         60.61075       41.57098       67.22797
C         61.31278       40.76904       66.23335
C         60.40379       40.38905       65.08011
O         59.24514       40.08846       65.30830
C         61.77000       39.46251       66.91811
C         62.65179       39.70020       68.12003
C         63.98698       40.10633       67.96657
C         62.13996       39.49869       69.41357
C         64.79957       40.29343       69.09157
C         62.94709       39.70418       70.53437
C         64.27959       40.09384       70.37976
O         65.04827       40.26811       71.47373
H         59.94228       41.07568       67.83305
H         62.20668       41.30054       65.83826
H         62.29442       38.78953       66.20441
H         60.85175       38.92476       67.24623
H         64.40335       40.25735       66.97850
H         61.11050       39.19423       69.55592
H         65.83287       40.58957       68.96209
H         62.53836       39.55504       71.52504
H         65.98022       40.52111       71.41476
N         60.92342       40.30313       63.81804
C         60.27479       39.75007       62.62477
C         59.03896       40.48538       62.12288
O         58.48136       40.02464       61.13542
C         60.04109       38.21132       62.71910
C         58.88314       37.71912       63.60707
C         58.68518       36.23621       63.46460
O         58.41238       35.75068       62.37811
O         58.78742       35.43551       64.54275
H         61.90681       40.58852       63.69316
H         61.01971       39.84674       61.80157
H         60.98654       37.71468       63.02984
H         59.81749       37.86681       61.68444
H         57.93873       38.22576       63.31377
H         59.09409       37.91035       64.67134
N         58.56242       41.63002       62.69336
C         57.34437       42.29051       62.22309
C         57.61962       43.66080       61.62283
O         56.67136       44.27524       61.15247
C         56.35316       42.42333       63.39568
C         56.01808       41.09434       64.09073
C         55.20643       40.15195       63.25533
O         55.63450       39.69099       62.21051
O         54.00572       39.77078       63.71730
H         59.06196       42.05213       63.48884
H         56.86382       41.70278       61.41344
H         55.40880       42.90695       63.05990
H         56.82504       43.08512       64.15208
H         55.42000       41.32771       64.99456
H         56.94064       40.58685       64.42959
N         58.87113       44.20545       61.58322
C         59.15271       45.50153       60.99721
H         59.89701       45.38110       60.18270
H         58.24814       45.98423       60.57044
H         59.57272       46.17343       61.77411
H         59.67349       43.69795       61.98016
Ca        52.63131       38.31516       62.73039
O         52.40316       35.08154       62.92578
H         51.73994       34.34701       62.90911
H         53.25595       34.65180       62.66565
O         55.21700       36.65436       62.75601
H         55.91833       36.83979       62.08311
H         55.66945       36.77688       63.62764
O         54.06219       37.62138       59.94175
H         54.92551       38.10609       59.94539
H         53.54309       38.04539       59.21330

Ca 1.0



