%chk=apoCaM-CA-Ng.loop2.water4.frame1131.chk
%nprocshared=20
%mem=10GB
%nosave
#b3lyp/svp scf=(tight,noincore,xqc) Test 
#IOP(5/87=12) Density=Current Pop=(MK,readradii) iop(6/33=2) iop(6/42=6)

apoCaM-CA-Ng.loop2.water4.frame1131 

   -2  1 
C        105.26220       60.95540       53.25341
C        105.27940       60.75468       54.74103
O        104.31418       60.21605       55.26363
H        105.33015       62.03622       53.01435
H        106.11193       60.40856       52.79375
H        104.31839       60.55831       52.82052
N        106.32955       61.12933       55.52513
C        107.55162       61.78338       55.05671
C        107.74660       63.11535       55.78407
O        106.84429       63.53627       56.49584
C        108.75238       60.82177       55.20524
C        109.09573       60.47092       56.62027
O        110.29701       60.81726       57.12072
O        108.31111       59.84056       57.30839
H        106.25492       60.92569       56.53248
H        107.49563       62.00825       53.97205
H        109.64441       61.28084       54.73184
H        108.54391       59.88541       54.64289
N        108.90283       63.83849       55.64962
C        109.13171       65.16343       56.23263
C        109.01605       65.23819       57.76042
O        109.08939       66.34351       58.27981
C        108.17713       66.17299       55.57798
H        109.66213       63.45820       55.06753
H        110.16078       65.49167       55.96248
H        108.30369       66.14804       54.47442
H        107.11850       65.95283       55.82340
H        108.41016       67.20335       55.92236
N        108.83626       64.13725       58.54736
C        108.57420       64.20257       59.98927
C        109.70820       63.54349       60.77150
O        110.68555       63.13509       60.15752
C        107.19341       63.54458       60.25363
C        107.24230       62.07501       59.95295
O        108.06605       61.30807       60.68667
O        106.61775       61.60037       59.01926
H        108.85719       63.20279       58.11667
H        108.50516       65.25646       60.33422
H        106.43792       64.04909       59.61035
H        106.87910       63.68143       61.30909
N        109.62857       63.36802       62.12780
C        110.67826       62.71199       62.89772
C        110.21696       61.37091       63.42106
O        109.76951       60.55440       62.63115
H        108.78446       63.67840       62.63125
H        111.01646       63.38050       63.71790
H        111.56181       62.51372       62.26378
N        110.36735       61.03243       64.73241
C        109.99904       59.70893       65.24318
C        108.47734       59.53835       65.22973
O        107.77774       60.49651       64.92750
C        110.64147       59.52377       66.64191
C        110.51418       58.13952       67.22679
N        109.96749       57.95477       68.45112
O        110.93560       57.17728       66.60135
H        110.81802       61.71211       65.36489
H        110.45338       58.94520       64.57198
H        110.23431       60.28369       67.34253
H        111.73309       59.71123       66.53432
H        109.62879       58.75448       69.00536
H        109.89734       57.00925       68.85575
N        107.89221       58.34131       65.53040
C        106.45052       58.12626       65.50976
C        105.92530       57.85730       66.90075
O        106.70756       57.86377       67.84139
H        108.47941       57.53550       65.78217
H        106.22442       57.27570       64.83277
H        105.91555       59.02306       65.13092
N        104.59939       57.67171       67.15800
C        103.53538       57.60770       66.16033
C        102.71149       58.87643       66.23638
O        102.27554       59.23537       67.32204
C        102.67195       56.35025       66.42706
C        101.49112       56.23809       65.45218
O        103.48323       55.20982       66.30723
H        104.31728       57.58919       68.14864
H        103.94351       57.52061       65.13186
H        102.26822       56.41486       67.46572
H        103.00665       54.46626       66.76158
H        100.80992       57.10915       65.55632
H        101.85380       56.18291       64.40442
H        100.90330       55.32288       65.67778
N        102.43267       59.58877       65.10181
C        101.66815       60.83250       65.10479
C        100.27460       60.58853       64.52468
O        100.18292       59.87850       63.53102
C        102.41509       61.99445       64.36934
C        102.36288       61.89273       62.82043
C        103.86150       62.10980       64.88934
C        102.93922       63.12195       62.11225
H        102.74861       59.21869       64.19227
H        101.58341       61.19071       66.14384
H        101.87805       62.93206       64.63563
H        101.30093       61.84994       62.50007
H        102.87751       60.97619       62.46369
H        104.36509       63.01149       64.48794
H        103.86981       62.19448       65.99610
H        104.45503       61.21727       64.59486
H        102.77590       63.02775       61.01796
H        102.42412       64.04320       62.46216
H        104.02896       63.21931       62.28503
N         99.13611       61.17106       65.00864
C         99.10142       62.07856       66.15300
C         97.88132       62.99657       66.14280
O         96.98450       62.84818       65.32874
C         99.15206       61.27284       67.48447
C         97.99350       60.32710       67.69885
O         97.94729       59.59234       68.82602
O         97.10259       60.20710       66.87225
H         98.26559       60.99741       64.48454
H         99.96576       62.77053       66.07660
H         99.18356       61.97543       68.34289
H        100.06835       60.66034       67.53966
N         97.81460       63.98714       67.07708
C         96.67201       64.86560       67.28018
C         97.11139       66.32559       67.16887
O         98.07201       66.67801       67.83410
C         96.15568       64.61465       68.71043
C         94.98361       65.49882       69.04555
C         95.18912       66.69089       69.75994
C         93.68584       65.15357       68.63660
C         94.11300       67.52870       70.05602
C         92.60801       65.98879       68.94820
C         92.82231       67.17660       69.65438
H         98.60963       64.09875       67.72247
H         95.84868       64.62758       66.58354
H         96.98451       64.81379       69.42573
H         95.87179       63.54825       68.85178
H         96.18565       66.97911       70.07156
H         93.50976       64.23772       68.08575
H         94.28220       68.45102       70.59603
H         91.60688       65.71705       68.64058
H         91.98931       67.82539       69.88990
N         96.41983       67.26672       66.44286
C         95.20197       67.05452       65.67737
C         95.39958       66.13792       64.49354
O         94.66183       65.17610       64.35517
C         94.80608       68.46374       65.20730
C         95.33962       69.31937       66.33558
C         96.70866       68.68444       66.55161
H         94.41300       66.67263       66.36270
H         95.38593       68.75596       64.30258
H         93.72566       68.58333       64.97806
H         95.36431       70.41000       66.12763
H         94.71331       69.13564       67.23951
H         97.40766       68.97144       65.73488
H         97.11636       68.98796       67.53980
N         96.40571       66.38027       63.60551
C         96.63609       65.55666       62.43163
C         95.52783       65.84029       61.42502
O         95.42050       66.98022       60.99487
C         98.01624       65.83501       61.76928
C         99.24486       65.32537       62.56578
C         99.72950       66.14872       63.73375
O         99.26530       67.24488       63.99168
O        100.76780       65.69460       64.46051
H         97.00879       67.18889       63.77349
H         96.65182       64.49048       62.73750
H         98.14067       66.89983       61.47321
H         98.01752       65.23154       60.83367
H        100.10784       65.28148       61.86686
H         99.03942       64.28764       62.90582
N         94.65222       64.89238       60.98403
C         94.66517       63.51195       61.41445
H         93.84975       62.95399       60.90704
H         95.63370       63.03766       61.15235
H         94.49422       63.44662       62.50768
H         93.93127       65.17094       60.29988
Ca       109.53180       59.83753       59.81947
O        111.10461       57.74047       61.34355
H        111.83293       57.86205       62.00280
H        110.31758       57.48244       61.88599
O        112.83048       60.49611       61.04842
H        113.17840       61.41239       60.90650
H        112.85685       60.36935       62.03045
O        111.63038       58.32978       58.22973
H        112.50901       58.01236       58.55687
H        111.69509       58.27503       57.24330
O        107.73593       57.76243       59.95633
H        108.21214       56.89537       59.92621
H        107.27448       57.77000       60.83180

Ca 1.0



