%chk=apoCaM-CA-Ng.loop3.water5.frame71.chk
%nprocshared=20
%mem=10GB
%nosave
#b3lyp/svp scf=(tight,noincore,xqc) Test 
#IOP(5/87=12) Density=Current Pop=(MK,readradii) iop(6/33=2) iop(6/42=6)

apoCaM-CA-Ng.loop3.water5.frame71 

   0  1 
C         59.12853       62.18206       49.62660
C         60.00714       61.94768       48.43264
O         59.61261       62.30406       47.33325
H         58.16275       61.65385       49.47354
H         59.59149       61.78512       50.55535
H         58.93686       63.26625       49.75429
N         61.20758       61.31836       48.57770
C         62.07857       60.90875       47.47946
C         61.35918       59.88217       46.61950
O         61.35600       59.97911       45.39970
C         62.62394       62.10982       46.67032
C         63.41268       63.08772       47.50251
O         63.60380       62.89324       48.82249
O         63.89516       64.07366       46.96930
H         61.50663       61.04754       49.52755
H         62.94907       60.37703       47.92619
H         61.78725       62.65279       46.18363
H         63.29493       61.72917       45.86954
N         60.70477       58.85788       47.23633
C         59.99957       57.78218       46.54137
C         58.83861       58.26325       45.67321
O         58.27165       57.41739       44.99080
C         59.46460       56.75144       47.57425
C         60.55958       56.07144       48.42587
C         61.44059       55.10837       47.61309
C         62.61196       54.53086       48.42759
N         62.17629       53.79327       49.61438
H         60.72704       58.84240       48.26570
H         60.71739       57.28296       45.85917
H         58.87842       55.95333       47.06774
H         58.77329       57.29068       48.26016
H         60.04779       55.48762       49.21990
H         61.19441       56.82894       48.92743
H         61.89296       55.63806       46.75116
H         60.80761       54.28238       47.22052
H         63.29170       55.35612       48.73580
H         63.18604       53.84623       47.76440
H         61.50491       53.03749       49.34848
H         63.01404       53.36108       50.06693
H         61.73736       54.43994       50.30796
N         58.42906       59.56701       45.61172
C         57.36112       60.02448       44.72962
C         57.91274       60.99021       43.68670
O         59.05637       61.41833       43.79400
C         56.24443       60.66491       45.58245
C         54.99972       60.95781       44.79608
O         54.39155       60.04672       44.25682
O         54.53625       62.21564       44.68792
H         58.88488       60.27557       46.19633
H         56.93869       59.15549       44.18002
H         56.63068       61.59427       46.05702
H         55.95738       59.96153       46.39329
N         57.16052       61.32903       42.60514
C         57.61762       62.20192       41.54103
C         57.78599       63.62618       42.00393
O         58.85459       64.18657       41.80800
H         56.22718       60.90748       42.49225
H         56.85297       62.21092       40.73734
H         58.55971       61.80641       41.09894
N         56.75140       64.28108       42.60892
C         56.80796       65.69306       42.98571
C         56.85481       65.90309       44.49207
O         56.96304       67.04871       44.91004
C         55.63828       66.47574       42.34615
C         54.28716       66.15226       42.94685
N         53.57223       67.10665       43.58764
O         53.83001       65.02612       42.85290
H         55.89273       63.74880       42.80386
H         57.74499       66.13956       42.58747
H         55.61454       66.28604       41.25084
H         55.83827       67.55963       42.48784
H         53.93187       68.06743       43.68003
H         52.65435       66.88417       43.99963
N         56.83376       64.86133       45.37083
C         57.00792       65.03967       46.80146
C         55.86785       65.75938       47.48773
O         54.87728       66.11471       46.86363
H         56.77088       63.89408       45.02364
H         57.95862       65.58519       46.98374
H         57.09072       64.03867       47.27856
N         55.96377       65.96818       48.83172
C         54.91591       66.55134       49.67255
C         53.64679       65.68795       49.61676
O         53.63797       64.63779       48.98938
C         55.50507       66.71549       51.11414
C         54.56514       67.13761       52.22703
C         53.88616       68.37273       52.21736
C         54.35645       66.25729       53.30399
C         52.97973       68.68551       53.24187
C         53.46551       66.57733       54.32663
C         52.76301       67.78679       54.29418
O         51.87843       68.09055       55.26567
H         56.84192       65.66730       49.28377
H         54.65353       67.56006       49.28249
H         56.34312       67.44560       51.06810
H         55.94307       65.73345       51.39521
H         54.02726       69.07181       51.40283
H         54.87451       65.30752       53.34842
H         52.43501       69.62110       53.21368
H         53.31536       65.87562       55.13753
H         51.69375       67.48419       55.99829
N         52.51585       66.11695       50.23603
C         51.21415       65.47172       50.18544
C         50.22173       66.52473       49.71444
O         49.58843       66.33428       48.68697
C         50.83145       64.90339       51.58912
C         51.87096       63.83509       52.02392
C         49.41110       64.30005       51.56284
C         51.63352       63.25566       53.42092
H         52.55824       66.99214       50.75034
H         51.22094       64.61859       49.46948
H         50.84270       65.73174       52.33238
H         52.87967       64.29419       52.03413
H         51.88426       63.00035       51.28958
H         48.66315       65.05364       51.25218
H         49.36079       63.44414       50.85759
H         49.09982       63.96036       52.57094
H         51.62574       64.06409       54.18150
H         50.68162       62.68975       53.47109
H         52.45131       62.54521       53.66589
N         50.06974       67.68540       50.42177
C         49.12726       68.74075       50.07739
C         47.71188       68.26239       50.29136
O         46.87134       68.52638       49.44284
C         49.37981       69.99409       50.92626
O         50.67794       70.46387       50.68037
H         50.64957       67.83201       51.26095
H         49.27410       69.05291       49.01791
H         49.26127       69.76178       52.00720
H         48.64259       70.77486       50.62557
H         50.74657       71.34526       51.13013
N         47.39476       67.48422       51.37511
C         46.06797       66.92627       51.62521
C         45.55137       66.04207       50.48887
O         44.41087       65.60729       50.58680
C         45.08526       68.06306       51.94785
H         48.13514       67.25262       52.05458
H         46.10716       66.28232       52.53239
H         45.39961       68.56287       52.88951
H         45.04521       68.82192       51.14140
H         44.06023       67.66515       52.10596
N         46.30252       65.72925       49.38898
C         45.77907       65.00553       48.24241
C         46.57193       63.75225       47.94520
O         47.61059       63.51088       48.54687
C         45.81517       65.93346       47.02365
H         47.27514       66.03903       49.32179
H         44.72515       64.70417       48.42470
H         46.86240       66.23804       46.80306
H         45.39381       65.43541       46.12605
H         45.21841       66.84704       47.22909
N         46.08483       62.88490       47.01499
C         46.70946       61.63656       46.60735
C         46.98027       60.76390       47.82495
O         48.10000       60.31109       48.02263
C         47.96046       61.92727       45.74400
C         48.40779       60.69880       44.93354
C         49.61603       61.00589       44.09752
O         49.57981       61.89431       43.26056
O         50.74095       60.28254       44.25302
H         45.17436       63.10441       46.58104
H         45.97220       61.11765       45.95389
H         48.78514       62.31319       46.38250
H         47.69871       62.72011       45.00809
H         47.58197       60.39101       44.25474
H         48.64179       59.84774       45.60447
N         45.98815       60.54032       48.72910
C         46.21019       59.77885       49.93867
H         47.03175       60.23876       50.53036
H         45.28972       59.77847       50.55998
H         46.47689       58.73199       49.68470
H         45.05692       60.95626       48.57604
Ca        52.64724       62.53854       43.49351
O         50.65888       64.80795       44.13466
H         50.32415       65.68771       43.82817
H         51.08039       64.99388       45.01082
O         54.24191       62.66945       40.86371
H         54.33550       62.11643       40.04832
H         54.07881       63.58543       40.52591
O         52.12764       62.75544       46.53456
H         51.93574       61.86039       46.15761
H         51.23783       63.12247       46.76491
O         52.51292       60.17479       41.57013
H         53.19304       59.50871       41.29827
H         51.66866       59.85090       41.16720
O         51.25478       63.79271       41.00338
H         50.99854       63.21202       40.24351
H         50.41103       64.23181       41.27764

Ca 1.0



