%chk=apoCaM-CA-Ng.loop2.water3.frame891.chk
%nprocshared=20
%mem=10GB
%nosave
#b3lyp/svp scf=(tight,noincore,xqc) Test 
#IOP(5/87=12) Density=Current Pop=(MK,readradii) iop(6/33=2) iop(6/42=6)

apoCaM-CA-Ng.loop2.water3.frame891 

   -2  1 
C          5.75853       -3.51493       17.73945
C          5.88291       -2.26926       16.91813
O          4.94147       -1.48867       16.87877
H          4.75375       -3.58032       18.21105
H          5.90471       -4.40233       17.08931
H          6.52936       -3.50860       18.53697
N          7.02825       -2.02608       16.21711
C          7.21236       -0.84548       15.38623
C          8.39010       -0.02694       15.88269
O          9.28874        0.30830       15.12244
C          7.29569       -1.27826       13.91039
C          7.37551       -0.11665       12.95685
O          6.43507        0.84760       12.98013
O          8.28268       -0.05382       12.14267
H          7.79211       -2.71796       16.25814
H          6.32863       -0.17558       15.47657
H          6.36454       -1.83664       13.67469
H          8.16051       -1.96092       13.76028
N          8.38027        0.40353       17.17190
C          9.23478        1.47633       17.65653
C         10.50311        0.91518       18.24497
O         10.38918        0.08370       19.13487
C          8.45134        2.26498       18.71095
H          7.59710        0.09702       17.77044
H          9.43199        2.18248       16.82707
H          8.25854        1.64215       19.61215
H          8.99533        3.18363       19.00652
H          7.46745        2.55649       18.28101
N         11.75753        1.25236       17.82806
C         12.11884        2.25502       16.81521
C         13.54730        2.03190       16.30448
O         14.22356        1.13849       16.77886
C         11.91225        3.70075       17.35767
C         12.50062        3.94574       18.72766
O         12.39917        5.05144       19.23730
O         13.08186        2.94057       19.41629
H         12.51794        0.74493       18.29921
H         11.50147        2.10123       15.90772
H         10.82935        3.92109       17.42262
H         12.35062        4.43616       16.64616
N         14.04316        2.75148       15.25770
C         15.35490        2.49840       14.66926
C         16.17582        3.75765       14.57468
O         16.28835        4.29466       13.48265
H         13.44242        3.45654       14.80493
H         15.18881        2.11893       13.64054
H         15.94129        1.72087       15.20310
N         16.79691        4.31941       15.64349
C         16.72906        3.80661       17.00083
C         17.72879        2.67489       17.21383
O         18.91944        2.88780       17.02579
C         16.94894        4.99960       17.94254
C         16.72349        4.72491       19.38635
N         16.76048        5.76270       20.24947
O         16.49913        3.59339       19.78166
H         17.31121        5.20202       15.48177
H         15.69808        3.45878       17.20929
H         16.19923        5.77259       17.65971
H         17.96663        5.42503       17.81941
H         16.95230        6.71707       19.91716
H         16.59019        5.63609       21.24471
N         17.30485        1.45072       17.65289
C         18.19087        0.33761       17.94734
C         18.49177        0.30903       19.41961
O         18.29090       -0.71118       20.06439
H         16.31476        1.32454       17.87515
H         19.14747        0.43488       17.39276
H         17.71806       -0.61917       17.62799
N         18.99611        1.42365       20.01548
C         19.37816        1.48415       21.41561
C         18.23494        1.16839       22.35462
O         17.07503        1.20227       21.96393
C         19.98332        2.87907       21.75964
C         21.33350        3.06076       21.07066
O         19.14384        3.93211       21.35403
H         19.13866        2.26034       19.43634
H         20.14328        0.69895       21.59303
H         20.16903        2.95740       22.85341
H         18.26115        3.79026       21.77498
H         21.22054        3.09490       19.96673
H         21.79923        4.01097       21.40601
H         22.00647        2.22066       21.34033
N         18.53373        0.87432       23.65168
C         17.53879        0.65156       24.67986
C         17.53217        1.91425       25.51398
O         18.52173        2.23287       26.15849
C         17.82342       -0.65913       25.48104
C         16.83962       -0.78724       26.67371
C         17.76260       -1.88437       24.54359
C         16.99026       -2.07768       27.48237
H         19.52332        0.88372       23.94311
H         16.53410        0.54162       24.21829
H         18.85207       -0.61719       25.90394
H         15.78893       -0.71514       26.32912
H         17.03969        0.05823       27.36611
H         16.76251       -1.97865       24.07020
H         18.53378       -1.80392       23.74875
H         17.98597       -2.82299       25.09318
H         16.37114       -2.01116       28.40190
H         16.62574       -2.94948       26.89934
H         18.04921       -2.23956       27.77444
N         16.43273        2.71240       25.48166
C         16.33061        4.02691       26.10237
C         15.46055        3.95798       27.33889
O         15.15534        5.00103       27.90159
C         15.67019        4.98515       25.09101
C         16.30957        4.85285       23.75943
O         17.44890        5.24880       23.57568
O         15.63516        4.23049       22.77449
H         15.61529        2.39261       24.94403
H         17.33746        4.41703       26.37386
H         15.69280        6.04655       25.42438
H         14.60495        4.68922       24.96605
N         14.98428        2.76213       27.79726
C         14.08916        2.65261       28.93337
C         13.41622        1.27269       28.97152
O         14.11675        0.26903       28.94477
C         14.84829        2.89494       30.26164
C         13.94822        2.60431       31.44547
C         13.93907        1.30988       31.99703
C         13.05779        3.56863       31.94827
C         13.04920        0.97949       33.01858
C         12.16809        3.23301       32.97772
C         12.16186        1.93887       33.50806
H         15.24233        1.89086       27.31395
H         13.31497        3.43516       28.83365
H         15.25205        3.92834       30.32209
H         15.71936        2.20551       30.29887
H         14.60132        0.54514       31.61068
H         13.03227        4.56598       31.52730
H         13.03989       -0.02629       33.41820
H         11.47077        3.96981       33.35454
H         11.46506        1.67467       34.29278
N         12.06200        1.15342       29.16879
C         11.38835       -0.09543       29.51087
C         11.01405       -0.93439       28.30685
O         10.31587       -1.92467       28.47843
C         10.14562        0.39896       30.26040
C          9.79492        1.68142       29.53342
C         11.16145        2.28789       29.27891
H         11.98358       -0.72194       30.21114
H          9.31313       -0.33149       30.34870
H         10.46985        0.68450       31.28553
H          9.34330        1.41085       28.55607
H          9.10928        2.36145       30.08556
H         11.13877        2.91993       28.36361
H         11.46251        2.89618       30.14396
N         11.44078       -0.60761       27.06138
C         11.04300       -1.32478       25.85859
C         11.36709       -2.81702       25.89264
O         10.69940       -3.56555       25.19150
C         11.64380       -0.61043       24.63310
C         13.18378       -0.67677       24.62434
C         13.75066        0.22679       23.58251
O         13.62712        1.56165       23.71296
O         14.35388       -0.23686       22.63232
H         12.03306        0.22459       26.95509
H          9.93474       -1.24143       25.79876
H         11.31452        0.45297       24.68555
H         11.24514       -1.04073       23.68973
H         13.49414       -1.72678       24.44290
H         13.62542       -0.35122       25.58718
N         12.34037       -3.33283       26.69704
C         12.55541       -4.76139       26.81909
H         13.41648       -4.96413       27.49106
H         11.65172       -5.23480       27.26207
H         12.75833       -5.21818       25.82728
H         12.94093       -2.70405       27.24984
Ca        14.39636        3.16008       21.23180
O         11.89804        1.36173       21.51777
H         11.99285        0.55344       20.95661
H         10.93692        1.41061       21.74534
O         14.63937        0.39055       19.80979
H         14.62484        0.14932       18.85625
H         14.95263       -0.44431       20.23080
O         12.20424        4.24516       22.44068
H         11.84006        4.04075       21.54357
H         12.40382        5.21338       22.40964

Ca 1.0



