%chk=apoCaM-CA-Ng.loop1.water2.frame943.chk
%nprocshared=20
%mem=10GB
%nosave
#b3lyp/svp scf=(tight,noincore,xqc) Test 
#IOP(5/87=12) Density=Current Pop=(MK,readradii) iop(6/33=2) iop(6/42=6)

apoCaM-CA-Ng.loop1.water2.frame943 

   0  1 
C        105.54774       89.81156       69.57255
C        105.00439       89.12929       70.79026
O        104.34119       88.11098       70.65087
H        106.65622       89.82325       69.61935
H        105.23340       89.27518       68.65119
H        105.16832       90.85353       69.52558
N        105.23599       89.65319       72.02826
C        104.73221       89.04207       73.25581
C        103.61571       89.87827       73.86958
O        103.46091       91.04415       73.53233
C        105.88525       88.67958       74.22281
C        106.76322       89.81783       74.68260
O        107.81115       89.55220       75.48612
O        106.55557       90.96919       74.33772
H        105.76787       90.53355       72.08707
H        104.24541       88.07650       72.99840
H        106.54542       87.95200       73.70143
H        105.46670       88.17634       75.12048
N        102.68301       89.25652       74.64767
C        101.42217       89.87236       75.05813
C        101.59452       90.95990       76.09128
O        102.17028       90.69671       77.13875
C        100.47373       88.83769       75.69669
C         99.98410       87.74835       74.73548
C         99.00096       86.83858       75.48323
C         98.41456       85.74911       74.58376
N         97.49565       84.90259       75.34558
H        102.82750       88.25705       74.85773
H        100.90143       90.27652       74.16088
H         99.56851       89.38250       76.05286
H        100.96793       88.36934       76.57718
H        100.83678       87.14704       74.35439
H         99.46785       88.22469       73.87268
H         98.16311       87.45417       75.88047
H         99.52833       86.36218       76.33877
H         99.23466       85.12311       74.16832
H         97.86579       86.22249       73.73921
H         96.71943       85.47981       75.74469
H         97.08772       84.17782       74.71296
H         98.00967       84.42536       76.12197
N        100.98229       92.16782       75.91299
C        100.88646       93.17532       76.96538
C         99.41839       93.43275       77.30410
O         98.57494       93.24755       76.43733
C        101.56504       94.47652       76.52858
C        103.00540       94.22391       76.19947
O        103.44512       94.41774       74.94292
O        103.77119       93.80976       77.05560
H        100.50147       92.35674       75.01975
H        101.40142       92.79307       77.86804
H        101.50358       95.23651       77.33779
H        101.04293       94.87739       75.63312
N         98.99425       93.78743       78.55265
C         99.86709       93.98927       79.69411
C         99.80708       92.76497       80.55731
O        100.08273       91.68343       80.05553
H         97.97699       93.84601       78.72172
H         99.56361       94.91312       80.23289
H        100.91934       94.14720       79.40119
N         99.45682       92.85195       81.86622
C         99.31923       91.68788       82.72658
C         97.89914       91.67528       83.23655
O         97.49628       92.62752       83.89280
C        100.36014       91.75691       83.86188
C        100.37704       90.54762       84.76421
O         99.61137       89.61165       84.59238
O        101.27081       90.49143       85.76954
H         99.26266       93.78245       82.26888
H         99.51744       90.75260       82.15656
H        100.18781       92.66643       84.47618
H        101.36922       91.83575       83.40089
N         97.06150       90.64183       82.94500
C         95.67456       90.64539       83.36640
C         94.82966       91.68410       82.64377
O         93.68525       91.84618       83.03787
H         97.41621       89.82531       82.42335
H         95.63977       90.81478       84.46460
H         95.21734       89.65212       83.16396
N         95.27989       92.36057       81.53831
C         94.43168       93.27090       80.76283
C         95.15442       94.59263       80.48016
O         96.33548       94.70421       80.77302
C         94.00909       92.50681       79.47530
C         92.92661       93.17862       78.62789
O         95.12798       92.24494       78.66460
H         96.21384       92.14506       81.16147
H         93.51086       93.50299       81.33966
H         93.54153       91.54883       79.81159
H         95.45639       91.33670       78.89435
H         92.61181       92.48549       77.81945
H         92.03812       93.41209       79.25284
H         93.29363       94.09416       78.13021
N         94.48940       95.63976       79.90121
C         95.12585       96.89375       79.48961
C         94.55475       98.09306       80.24255
O         95.15768       99.15620       80.15218
C         94.94843       97.04884       77.93528
C         95.72577       95.91937       77.20593
C         95.37441       98.43291       77.39378
C         95.45723       95.85217       75.69947
H         93.48424       95.53963       79.71341
H         96.21127       96.87115       79.73221
H         93.86292       96.94069       77.71056
H         95.42683       94.93553       77.61864
H         96.81721       96.04163       77.37979
H         94.74965       99.24130       77.82334
H         96.44544       98.63092       77.60651
H         95.19623       98.51609       76.30469
H         95.80657       96.76172       75.17246
H         96.00879       94.99184       75.26641
H         94.37189       95.70919       75.51023
N         93.41795       98.03844       80.99632
C         92.86802       99.24132       81.61555
C         92.48402      100.24960       80.54473
O         92.07658       99.86294       79.45727
C         91.63699       98.94136       82.50464
C         92.01068       98.04788       83.69160
O         91.12062      100.15003       83.00550
H         92.91175       97.14980       81.10771
H         93.64933       99.69239       82.26903
H         90.86581       98.43693       81.87502
H         90.17164       99.98554       83.24639
H         92.77785       98.55153       84.31891
H         91.11191       97.86259       84.31659
H         92.40718       97.06960       83.35399
N         92.54357      101.57594       80.83487
C         92.12998      102.63367       79.92502
C         93.27304      103.61522       79.70384
O         93.57506      103.92081       78.55858
C         90.86979      103.32135       80.50494
C         90.25433      104.32560       79.52197
O         91.16957      103.95524       81.72121
H         92.85249      101.84195       81.78072
H         91.82689      102.21039       78.94002
H         90.11549      102.51792       80.68062
H         90.30756      104.10277       82.19056
H         90.95830      105.15058       79.29234
H         89.97945      103.81271       78.57526
H         89.32937      104.75845       79.95924
N         93.94747      104.15225       80.76382
C         94.96250      105.19219       80.64881
C         96.32797      104.69922       81.08668
O         96.46270      103.59597       81.59799
C         94.53094      106.36910       81.55155
C         93.26285      107.05134       81.01460
C         92.59934      107.99565       82.02935
C         91.88507      107.21650       83.15293
N         91.14405      108.11587       84.03503
H         93.71579      103.83893       81.71680
H         95.06946      105.52622       79.59287
H         95.32460      107.14269       81.64009
H         94.36559      105.95115       82.56718
H         92.50037      106.30699       80.70899
H         93.55937      107.62225       80.10792
H         91.82308      108.57343       81.48353
H         93.34148      108.71265       82.44396
H         92.60939      106.63120       83.75722
H         91.16398      106.50471       82.69323
H         91.80084      108.77283       84.51387
H         90.43648      108.65563       83.48515
H         90.64212      107.54750       84.75574
N         97.40572      105.50476       80.86891
C         98.77615      105.18662       81.25211
C         99.24716      103.85260       80.67222
O         99.68542      103.03001       81.46415
C         99.73453      106.34746       80.88049
C         99.42523      107.62585       81.68446
C        100.33501      108.75440       81.29298
O        100.31788      109.19097       80.15280
O        101.15566      109.30886       82.20537
H         97.23264      106.39977       80.38645
H         98.82347      105.09033       82.36103
H         99.67034      106.57371       79.79940
H        100.78083      106.04774       81.11119
H         99.55375      107.40947       82.76739
H         98.38046      107.96105       81.52054
N         99.19678      103.50513       79.35233
C         98.64194      104.31483       78.29067
H         97.57179      104.52759       78.48537
H         99.21218      105.25064       78.16146
H         98.70131      103.75504       77.33260
H         99.54878      102.57116       79.08770
Ca       105.55182       93.85834       74.36609
O        108.05528       93.32021       75.96051
H        108.43258       92.60993       76.53759
H        108.59475       93.28078       75.13106
O        105.63755       91.47906       77.05825
H        104.81266       91.03106       76.74362
H        105.66986       91.29276       78.02932

Ca 1.0



