%chk=apoCaM-CA-Ng.loop1.water2.frame427.chk
%nprocshared=20
%mem=10GB
%nosave
#b3lyp/svp scf=(tight,noincore,xqc) Test 
#IOP(5/87=12) Density=Current Pop=(MK,readradii) iop(6/33=2) iop(6/42=6)

apoCaM-CA-Ng.loop1.water2.frame427 

   0  1 
C         97.43949       72.56536       81.00689
C         97.47992       73.55940       79.88135
O         97.30664       73.17241       78.73504
H         96.44526       72.07321       81.03242
H         98.22837       71.79962       80.85991
H         97.60852       73.05720       81.98945
N         97.69644       74.87511       80.14444
C         97.71237       75.91635       79.12127
C         99.06279       75.99796       78.40773
O         99.29936       77.00256       77.75343
C         97.38964       77.28575       79.77580
C         96.03051       77.30015       80.43574
O         95.77515       76.51786       81.50172
O         95.15205       78.03512       80.01552
H         97.81131       75.15808       81.12993
H         96.90122       75.75042       78.37826
H         97.39313       78.06515       78.98127
H         98.16492       77.55868       80.52495
N        100.02114       75.03025       78.51507
C        101.39254       75.21912       78.05141
C        101.81487       74.15182       77.04254
O        101.51667       72.99264       77.29824
C        102.32090       75.15517       79.28103
C        101.84958       76.08619       80.40798
C        102.88175       76.13213       81.53790
C        102.35813       76.83886       82.79764
N        101.30730       76.05986       83.46162
H         99.82501       74.16275       79.03235
H        101.51165       76.22587       77.62690
H        103.34762       75.42811       78.98451
H        102.35164       74.11889       79.68440
H        100.88593       75.68594       80.77973
H        101.68239       77.12025       80.03141
H        103.77517       76.67428       81.15541
H        103.19657       75.10513       81.82185
H        101.98655       77.85864       82.55217
H        103.21143       76.94333       83.50258
H        101.07334       76.50939       84.37524
H        100.43686       76.02515       82.88639
H        101.64514       75.08697       83.64850
N        102.59251       74.38469       75.93231
C        103.14255       75.66414       75.48080
C        103.91538       76.35278       76.60005
O        103.51262       77.41891       77.03387
C        102.04855       76.54847       74.82869
C        101.46939       75.95081       73.57141
O        100.61384       76.56439       72.95403
O        101.90163       74.76647       73.09608
H        102.87495       73.56010       75.37937
H        103.87619       75.48052       74.66333
H        102.50743       77.51107       74.52243
H        101.22243       76.75735       75.53359
N        105.03781       75.83055       77.16191
C        105.67654       74.60105       76.72055
C        106.93377       74.29500       77.51922
O        107.22038       74.98436       78.48638
H        105.46031       76.37839       77.92663
H        105.97015       74.73907       75.65735
H        104.97709       73.74569       76.81024
N        107.79526       73.30250       77.16599
C        107.61064       72.38475       76.05085
C        108.51323       72.78056       74.90756
O        109.68434       73.06219       75.12847
C        107.83982       70.91769       76.47113
C        109.24085       70.60000       76.93460
O        109.73615       71.14318       78.06246
O        109.92524       69.81093       76.30306
H        108.67384       73.24597       77.70038
H        106.56479       72.42216       75.68049
H        107.61107       70.28401       75.58476
H        107.12329       70.64374       77.27415
N        108.02318       72.81275       73.63725
C        108.81396       73.25103       72.50800
C        109.04767       74.73110       72.61192
O        110.19116       75.15574       72.69321
H        107.05488       72.50595       73.45769
H        108.25708       73.06315       71.56446
H        109.76601       72.67662       72.46537
N        107.97818       75.57809       72.59550
C        108.09541       77.02697       72.66984
C        107.24642       77.54743       73.82179
O        106.07804       77.19715       73.89396
C        107.66355       77.65311       71.32167
C        108.19981       79.08290       71.20148
O        106.26566       77.65640       71.17077
H        107.03529       75.17085       72.49212
H        109.16127       77.30568       72.82217
H        108.12966       77.09663       70.47607
H        105.98439       76.71773       71.01768
H        109.31082       79.06598       71.19749
H        107.85628       79.54274       70.25119
H        107.89121       79.71041       72.05649
N        107.77484       78.37412       74.76471
C        107.02931       78.88299       75.91818
C        106.18122       80.09728       75.49800
O        106.54984       81.21957       75.81539
C        108.02635       79.18248       77.09526
C        108.88004       77.91753       77.41641
C        107.25746       79.63034       78.35906
C        109.96155       78.12750       78.47900
H        108.76833       78.63425       74.67022
H        106.35835       78.09061       76.31381
H        108.71466       79.99795       76.78051
H        109.41592       77.57352       76.50886
H        108.21352       77.09693       77.74038
H        107.95316       79.90008       79.17815
H        106.64353       80.53188       78.17192
H        106.58560       78.81871       78.71307
H        109.52799       78.37497       79.46773
H        110.54066       77.18659       78.59991
H        110.65948       78.93148       78.16378
N        105.02782       79.94002       74.77474
C        104.19528       81.05261       74.29215
C        102.77200       81.04140       74.86002
O        102.02025       81.95728       74.55769
C        104.12571       81.02530       72.74030
C        103.40744       79.78525       72.16424
O        105.41152       81.13857       72.19519
H        104.72382       78.98696       74.54806
H        104.65190       82.02010       74.59456
H        103.55007       81.91363       72.40166
H        105.85997       80.27254       72.35765
H        102.36323       79.72728       72.53096
H        103.37840       79.85202       71.05662
H        103.92830       78.84393       72.43564
N        102.32865       80.02682       75.65424
C        100.98418       79.86696       76.20889
C         99.91548       79.70619       75.12922
O        100.15645       79.98977       73.96505
C        100.64414       81.01324       77.20440
C        101.62875       81.03543       78.37598
O         99.35056       80.84666       77.72632
H        102.99083       79.29290       75.88860
H        100.98390       78.91042       76.77754
H        100.70095       81.98331       76.65899
H         98.98200       81.75234       77.90197
H        101.36720       81.86368       79.06832
H        101.57260       80.07682       78.93673
H        102.66864       81.18848       78.02102
N         98.68232       79.24421       75.48506
C         97.52275       79.19465       74.60143
C         96.98060       77.77314       74.38267
O         96.02590       77.62460       73.63339
C         96.50353       80.24506       75.11036
C         95.99964       80.08965       76.56417
C         95.31870       81.39568       77.02080
C         94.73493       81.34810       78.44449
N         95.75416       81.14608       79.47786
H         98.54463       78.95618       76.46012
H         97.80972       79.54116       73.58432
H         95.63532       80.31402       74.42025
H         97.04763       81.21543       75.05434
H         96.84321       79.92436       77.25414
H         95.30921       79.22212       76.63213
H         94.49098       81.63259       76.31960
H         96.05883       82.22746       76.97511
H         93.96717       80.54750       78.50687
H         94.23227       82.32272       78.63709
H         96.22328       80.22258       79.36633
H         96.46887       81.90827       79.44278
H         95.29053       81.16278       80.41552
N         97.61016       76.67767       74.90343
C         97.31689       75.28926       74.53430
C         95.91500       74.83630       74.90222
O         95.54023       74.91576       76.06408
C         98.33438       74.35027       75.22432
C         98.19920       72.86849       74.83789
C         98.57100       72.59867       73.41315
O         99.82780       72.87249       73.02113
O         97.79456       72.03650       72.65619
H         98.42031       76.83144       75.51285
H         97.46707       75.18897       73.43703
H         98.19885       74.42558       76.32248
H         99.36808       74.68251       74.98966
H         97.18018       72.48850       75.06373
H         98.91768       72.28906       75.45550
N         95.13187       74.24045       73.95615
C         93.85162       73.62237       74.23856
H         93.06378       74.08846       73.61302
H         93.91146       72.54080       73.98423
H         93.56468       73.70503       75.30734
H         95.48086       74.16327       72.98892
Ca       100.84106       71.80280       71.32292
O        102.72396       74.41120       69.97499
H        103.63338       74.79710       70.04174
H        102.47729       74.52089       69.02227
O        100.23669       72.73072       68.78614
H        100.43643       71.81608       68.46283
H         99.28126       72.87131       68.57177

Ca 1.0



