%chk=apoCaM-CA-Ng.loop4.water3.frame430.chk
%nprocshared=20
%mem=10GB
%nosave
#b3lyp/svp scf=(tight,noincore,xqc) Test 
#IOP(5/87=12) Density=Current Pop=(MK,readradii) iop(6/33=2) iop(6/42=6)

apoCaM-CA-Ng.loop4.water3.frame430 

   -3  1 
C         75.41854       65.40280       72.98108
C         74.29394       64.50048       73.38335
O         74.49058       63.30031       73.38797
H         76.32131       64.80593       72.72140
H         75.12146       66.00080       72.09563
H         75.67189       66.07752       73.82406
N         73.08691       65.01448       73.75714
C         71.94010       64.21386       74.18132
C         72.28275       63.39746       75.41709
O         72.48686       62.20595       75.30421
C         71.25401       63.45300       73.00032
C         72.04895       62.37110       72.31550
O         72.30006       61.21334       72.95244
O         72.42309       62.51909       71.16321
H         72.97988       66.03996       73.76723
H         71.13879       64.91712       74.50198
H         70.98810       64.22348       72.24352
H         70.30113       63.00077       73.35466
N         72.39800       64.01969       76.63106
C         72.68256       63.39735       77.93342
C         71.49435       62.57419       78.44084
O         70.89831       62.96565       79.43518
C         74.03186       62.61740       77.96206
C         74.37543       62.07012       79.37841
C         75.18480       63.48461       77.42299
C         74.55064       63.13427       80.47233
H         72.26845       65.04343       76.64176
H         72.78820       64.24649       78.64410
H         73.95258       61.73346       77.29417
H         75.32051       61.48779       79.31398
H         73.57925       61.36720       79.70506
H         75.30658       64.41299       78.01827
H         76.13743       62.91309       77.44267
H         74.99388       63.77755       76.36994
H         73.61431       63.70415       80.63971
H         74.81150       62.63709       81.43008
H         75.37075       63.83859       80.22521
N         71.06871       61.45103       77.79947
C         69.86606       60.71890       78.15850
C         70.03930       59.89779       79.43288
O         69.27082       60.13875       80.35267
C         69.40166       59.85816       76.95833
C         68.07098       59.17476       77.13991
O         67.36110       59.30323       78.27739
O         67.61887       58.50090       76.22819
H         71.56382       61.13369       76.96895
H         69.04874       61.46399       78.30253
H         70.16045       59.09308       76.71870
H         69.30368       60.52930       76.07561
N         70.93915       58.87744       79.59825
C         71.99719       58.46982       78.68490
C         71.67099       57.15270       78.01190
O         70.50572       56.77941       78.00905
H         70.87698       58.33103       80.47166
H         72.93119       58.38715       79.27768
H         72.17923       59.21741       77.90219
N         72.60287       56.37248       77.38271
C         74.06061       56.56162       77.41404
C         74.50621       57.90133       76.83682
O         73.70197       58.53473       76.16966
C         74.73570       55.37926       76.65785
C         74.48658       55.39897       75.16590
O         73.23588       55.32450       74.67140
O         75.42922       55.46890       74.39296
H         72.23720       55.52347       76.92339
H         74.35763       56.52185       78.48274
H         74.36223       54.41821       77.07190
H         75.82356       55.37278       76.81884
N         75.76029       58.42896       76.99049
C         76.89037       57.88695       77.73888
C         76.78281       58.05613       79.23440
O         75.77346       58.53757       79.73058
H         75.93807       59.32135       76.51261
H         77.78622       58.48194       77.45975
H         77.12559       56.85041       77.45764
N         77.86247       57.73153       80.00885
C         77.93609       57.96645       81.44624
C         78.98354       59.02390       81.80548
O         79.04765       59.37101       82.97652
C         78.11948       56.63826       82.22083
C         79.35465       55.79215       81.85656
C         80.65530       56.49933       82.11050
N         80.97012       56.94123       83.34955
O         81.43530       56.67169       81.18737
H         78.69478       57.33942       79.54221
H         76.97308       58.39417       81.80410
H         77.22490       56.00734       82.02837
H         78.12748       56.85638       83.31140
H         79.29204       55.48115       80.79198
H         79.34028       54.86828       82.47387
H         80.33131       56.79885       84.14360
H         81.85153       57.43826       83.51958
N         79.76732       59.64463       80.86350
C         80.58084       60.82583       81.17068
C         82.05936       60.71404       80.79384
O         82.76262       61.68056       81.06392
C         79.94166       62.08396       80.50892
C         78.52239       62.32585       81.04969
C         79.91113       62.00361       78.97359
H         79.70262       59.35703       79.87948
H         80.57752       61.01659       82.26672
H         80.54993       62.97266       80.79043
H         78.10105       63.26050       80.62299
H         77.84326       61.48620       80.78915
H         78.54793       62.43375       82.15548
H         79.27454       61.16492       78.62782
H         79.49388       62.94295       78.55287
H         80.93527       61.87048       78.56681
N         82.62823       59.61110       80.21683
C         84.06528       59.53926       79.93099
C         84.40098       59.21227       78.47758
O         85.58951       59.15339       78.19542
C         84.74374       58.47909       80.83359
C         84.63193       58.76069       82.30970
N         85.10692       59.90895       82.84549
O         84.13808       57.91851       83.04033
H         82.04790       58.78476       80.01942
H         84.55835       60.51263       80.14048
H         85.83109       58.44110       80.60288
H         84.31059       57.47926       80.61848
H         85.54807       60.62879       82.25663
H         85.03677       60.07613       83.86057
N         83.46769       58.97915       77.49980
C         83.87732       58.52404       76.16226
C         82.75236       58.54193       75.13428
O         81.60729       58.27022       75.46191
C         84.52543       57.11150       76.24261
C         83.64722       56.11222       76.96676
C         83.96469       55.74092       78.28487
C         82.50646       55.55968       76.36096
C         83.14082       54.86583       78.99526
C         81.68873       54.67295       77.06889
C         81.99539       54.33208       78.39053
O         81.18437       53.49542       79.06849
H         82.46719       59.09452       77.71087
H         84.64600       59.23024       75.77633
H         85.47514       57.20919       76.80598
H         84.82276       56.72817       75.24252
H         84.84020       56.14840       78.77283
H         82.24718       55.80885       75.34218
H         83.39099       54.61029       80.01738
H         80.81077       54.25697       76.59132
H         81.35208       53.25265       79.99046
N         83.06183       58.82485       73.82900
C         82.14199       58.79718       72.68887
C         81.04581       59.85105       72.72430
O         80.28579       59.90975       71.76654
C         81.53043       57.39914       72.48065
C         82.59935       56.32238       72.24959
C         81.98860       54.96933       71.99950
O         82.71503       54.01173       71.79130
O         80.65106       54.79572       71.99703
H         84.04605       59.03802       73.60494
H         82.73966       59.02979       71.77694
H         80.88418       57.43061       71.57466
H         80.89460       57.12693       73.34836
H         83.26389       56.25425       73.13611
H         83.21484       56.60075       71.36583
N         80.93068       60.75757       73.73182
C         79.94577       61.83117       73.72040
C         80.62177       63.12680       73.31634
O         80.00207       63.90883       72.60864
C         79.25672       61.95343       75.09141
C         78.54641       60.65955       75.51964
C         77.39395       60.30853       74.62514
O         77.36807       59.24562       74.02579
O         76.34197       61.14112       74.56179
H         81.60643       60.74511       74.50563
H         79.15252       61.63612       72.96293
H         78.51886       62.78703       75.06926
H         80.02447       62.19806       75.85665
H         78.13807       60.80095       76.54256
H         79.27527       59.82290       75.55675
N         81.92124       63.38205       73.65132
C         82.65126       64.54641       73.19950
H         83.51995       64.21254       72.59180
H         82.03052       65.22187       72.57577
H         83.02415       65.10831       74.07940
H         82.44994       62.71422       74.22795
Ca        74.40063       60.64700       73.53192
O         71.42478       59.10946       74.46468
H         70.57075       59.46439       74.11065
H         71.26215       58.14197       74.59147
O         73.93695       57.96645       72.35697
H         74.25113       57.71796       73.26229
H         74.47220       57.40311       71.74392
O         75.35857       60.73602       70.71330
H         76.11779       60.52378       71.31286
H         75.08614       61.65157       70.97438

Ca 1.0



