%chk=apoCaM-CA-Ng.loop3.water4.frame87.chk
%nprocshared=20
%mem=10GB
%nosave
#b3lyp/svp scf=(tight,noincore,xqc) Test 
#IOP(5/87=12) Density=Current Pop=(MK,readradii) iop(6/33=2) iop(6/42=6)

apoCaM-CA-Ng.loop3.water4.frame87 

   0  1 
C         42.15263       87.54251       95.54480
C         42.39375       89.02246       95.56019
O         42.19377       89.65081       94.53215
H         41.09231       87.34672       95.27733
H         42.80996       87.06669       94.78711
H         42.35792       87.08528       96.53476
N         42.82244       89.65156       96.69641
C         43.04086       91.09450       96.80709
C         44.16922       91.60312       95.91264
O         44.32809       92.81264       95.81267
C         41.72575       91.86863       96.55243
C         40.64032       91.42555       97.49431
O         39.59931       90.96155       97.05764
O         40.80989       91.54326       98.82563
H         42.97996       89.08524       97.54383
H         43.34710       91.32956       97.85138
H         41.38921       91.74131       95.50254
H         41.89578       92.95445       96.71757
N         45.03340       90.75574       95.27689
C         46.12274       91.23853       94.42831
C         45.63383       91.78925       93.09277
O         46.46689       92.23433       92.31444
C         47.15205       90.11352       94.16419
C         46.62653       88.97708       93.25855
C         47.63258       87.82740       93.09675
C         48.94905       88.24540       92.41929
N         49.83984       87.09543       92.26973
H         44.96026       89.74568       95.45661
H         46.66659       92.03264       94.98809
H         47.47875       89.69859       95.14261
H         48.03741       90.57617       93.67950
H         46.37045       89.37614       92.25266
H         45.70284       88.54723       93.69759
H         47.15121       87.04263       92.47304
H         47.84953       87.39275       94.09623
H         49.47077       89.01405       93.02738
H         48.73197       88.67636       91.41649
H         50.06694       86.69525       93.20931
H         49.38812       86.36386       91.67445
H         50.72732       87.40556       91.81211
N         44.31769       91.74321       92.73315
C         43.82791       92.09960       91.40948
C         42.99550       93.36532       91.51007
O         42.55915       93.71103       92.60111
C         43.07754       90.86432       90.86319
C         42.60812       90.96021       89.44286
O         41.65361       91.83677       89.09559
O         43.04330       90.18664       88.60436
H         43.61482       91.40383       93.40056
H         44.68695       92.32269       90.73929
H         42.20435       90.63379       91.51264
H         43.77914       90.00124       90.92834
N         42.86914       94.19553       90.43468
C         42.28421       95.52339       90.54725
C         40.82609       95.52430       90.94620
O         40.36111       96.55746       91.40590
H         43.28843       93.92179       89.53478
H         42.39830       96.08819       89.59729
H         42.86034       96.07113       91.32577
N         40.03389       94.42849       90.77587
C         38.64745       94.36433       91.22129
C         38.46135       93.15711       92.12231
O         38.05448       93.32859       93.26280
C         37.65286       94.38727       90.03692
C         37.72862       93.22305       89.08267
N         36.66805       92.39750       88.91690
O         38.74754       93.03224       88.44000
H         40.43047       93.60471       90.30957
H         38.39424       95.27337       91.81197
H         37.81303       95.32075       89.45502
H         36.62898       94.43868       90.46717
H         35.79486       92.54306       89.44467
H         36.71871       91.60488       88.26003
N         38.76423       91.90320       91.67766
C         38.61602       90.70026       92.47431
C         37.70468       89.70896       91.79162
O         37.15912       89.99519       90.73457
H         39.14139       91.77792       90.72845
H         38.22019       90.91784       93.48905
H         39.61862       90.23366       92.58666
N         37.51431       88.48698       92.35474
C         36.75031       87.42067       91.71555
C         37.63371       86.71771       90.67717
O         38.80582       87.04550       90.55355
C         36.17201       86.50654       92.83107
C         35.43516       85.27710       92.35335
C         34.26120       85.36140       91.57790
C         35.95377       84.01177       92.67181
C         33.64968       84.19301       91.10167
C         35.34027       82.85276       92.20156
C         34.19117       82.93762       91.40653
O         33.60563       81.82093       90.92942
H         38.01759       88.27650       93.23106
H         35.88854       87.86101       91.16506
H         35.48508       87.10870       93.46649
H         37.02117       86.18842       93.47253
H         33.84000       86.32424       91.31633
H         36.85075       83.92019       93.27118
H         32.76219       84.26172       90.48464
H         35.76922       81.89012       92.44851
H         33.96376       80.93908       91.10888
N         37.10080       85.77532       89.85179
C         37.78759       85.14078       88.73577
C         36.97821       85.46130       87.48913
O         37.52094       86.06417       86.57406
C         37.93640       83.60715       88.96856
C         38.75793       83.35445       90.26190
C         38.62364       82.94567       87.75370
C         38.92912       81.87731       90.62357
H         36.12187       85.52368       89.97481
H         38.81454       85.55545       88.61627
H         36.92531       83.15809       89.09070
H         38.24498       83.83881       91.11670
H         39.76577       83.81448       90.16484
H         39.65291       83.34167       87.62130
H         38.67041       81.84423       87.86886
H         38.06122       83.13367       86.81980
H         39.48143       81.79829       91.58398
H         37.93946       81.38836       90.74062
H         39.52362       81.33791       89.85874
N         35.64745       85.14538       87.41710
C         34.80800       85.51378       86.28358
C         35.13055       84.68783       85.05680
O         34.85241       85.14863       83.95941
C         33.31910       85.35932       86.62317
O         33.00656       86.16130       87.72954
H         35.19877       84.67771       88.21866
H         34.98409       86.59149       86.06272
H         33.10429       84.29109       86.85497
H         32.70689       85.68483       85.75206
H         32.07160       85.94056       87.97726
N         35.71573       83.45621       85.16885
C         36.09924       82.61123       84.04056
C         37.20041       83.22723       83.18822
O         37.57877       82.59946       82.20412
C         34.87206       82.23248       83.19808
H         35.89611       83.07415       86.10720
H         36.50931       81.66026       84.44844
H         34.41857       83.11181       82.69949
H         35.16228       81.50648       82.40855
H         34.10775       81.74975       83.84334
N         37.79210       84.41680       83.50210
C         38.84740       85.02839       82.71463
C         40.11281       85.15551       83.52978
O         40.10163       84.87256       84.72422
C         38.38432       86.41101       82.24494
H         37.51097       84.92607       84.34890
H         39.08001       84.40527       81.82343
H         38.16682       87.06121       83.12157
H         39.16085       86.90325       81.62363
H         37.45845       86.31327       81.64005
N         41.26648       85.54986       82.92507
C         42.54319       85.70772       83.60784
C         42.91505       84.41259       84.31508
O         43.20565       84.42709       85.50342
C         42.48781       86.91216       84.57597
C         42.09189       88.21095       83.85703
C         41.92537       89.32104       84.84779
O         41.00585       89.20532       85.82457
O         42.60370       90.33239       84.76834
H         41.25223       85.72705       81.90729
H         43.32003       85.92026       82.83994
H         43.48076       87.05377       85.05819
H         41.74352       86.70088       85.37357
H         41.11761       88.08467       83.33871
H         42.86396       88.47249       83.10031
N         42.86480       83.23400       83.63294
C         43.12580       81.94709       84.24590
H         43.42682       82.03598       85.31094
H         42.20393       81.32893       84.19859
H         43.93533       81.43104       83.69122
H         42.58607       83.23888       82.64056
Ca        40.84371       91.77507       86.99666
O         38.85454       89.32580       88.05893
H         39.36976       88.52705       88.33557
H         39.06554       90.00631       88.74623
O         43.11967       93.57406       86.71407
H         43.95008       93.33303       87.19573
H         42.79528       94.39435       87.16413
O         38.81336       91.34686       84.79437
H         39.14515       91.31602       83.86200
H         37.83861       91.19163       84.71922
O         40.19965       94.28777       85.68819
H         40.84074       94.13262       84.94948
H         39.40841       94.69231       85.25318

Ca 1.0



