%chk=apoCaM-CA-Ng.loop2.water5.frame193.chk
%nprocshared=20
%mem=10GB
%nosave
#b3lyp/svp scf=(tight,noincore,xqc) Test 
#IOP(5/87=12) Density=Current Pop=(MK,readradii) iop(6/33=2) iop(6/42=6)

apoCaM-CA-Ng.loop2.water5.frame193 

   -2  1 
C        104.37467       41.62581        2.99263
C        105.75256       41.63244        2.40247
O        106.52907       40.73801        2.70762
H        103.62047       41.56380        2.18125
H        104.24289       40.75623        3.67240
H        104.21255       42.55434        3.57552
N        106.12551       42.62311        1.54112
C        107.44788       42.68728        0.92540
C        108.22295       43.93431        1.33852
O        109.43234       43.92635        1.15919
C        107.29224       42.60981       -0.60604
C        108.60985       42.58821       -1.33044
O        109.49048       41.59481       -1.10468
O        108.88469       43.46851       -2.13041
H        105.43060       43.34651        1.30115
H        108.05314       41.81657        1.26246
H        106.68979       43.47982       -0.95172
H        106.73976       41.68218       -0.86925
N        107.62139       45.03976        1.87746
C        108.34949       46.23099        2.30507
C        109.19950       45.90445        3.52242
O        108.60693       45.64190        4.56019
C        109.09495       46.89022        1.13127
H        106.60057       45.06164        1.98379
H        107.61591       46.99762        2.64163
H        108.36813       47.15152        0.33321
H        109.58135       47.82692        1.47801
H        109.87149       46.24188        0.68252
N        110.56567       45.83868        3.48067
C        111.37378       45.49123        4.64948
C        111.86666       44.05356        4.56957
O        112.92715       43.73903        5.09277
C        112.50650       46.52388        4.85806
C        113.55090       46.55968        3.76363
O        113.50498       45.80183        2.80671
O        114.56709       47.43734        3.85543
H        111.04711       45.97065        2.58300
H        110.74249       45.52438        5.56467
H        113.02657       46.30354        5.81515
H        112.04986       47.53348        4.94270
N        111.07997       43.10355        3.99427
C        111.38496       41.68767        3.97634
C        111.36915       41.11941        5.37176
O        112.26298       40.36578        5.72899
H        110.18729       43.38084        3.56523
H        112.34281       41.48239        3.45055
H        110.57219       41.17724        3.41412
N        110.35884       41.45350        6.22099
C        110.20047       40.88441        7.54995
C        109.78362       39.43968        7.41271
O        108.80771       39.17585        6.72163
C        109.11546       41.64661        8.34259
C        109.48647       43.09553        8.55196
N        110.59963       43.43617        9.24443
O        108.76774       43.97203        8.09683
H        109.66886       42.14898        5.90442
H        111.15208       40.96983        8.11861
H        108.98431       41.17479        9.34112
H        108.14387       41.58427        7.80237
H        111.21597       42.71589        9.64772
H        110.84543       44.42743        9.38439
N        110.44520       38.45330        8.07833
C        110.05138       37.05711        7.99340
C        109.36710       36.61084        9.26001
O        109.22069       37.39309       10.19010
H        111.21986       38.70248        8.71199
H        110.94139       36.43138        7.77024
H        109.31997       36.89860        7.17178
N        108.86200       35.34818        9.33327
C        108.09097       34.86566       10.48016
C        106.74216       35.58986       10.63513
O        106.06371       35.33509       11.62160
C        107.88667       33.32396       10.41177
C        107.03263       32.84232        9.22556
O        109.12894       32.66227       10.43099
H        109.04017       34.72061        8.53629
H        108.69308       35.06091       11.39549
H        107.34758       33.01108       11.33240
H        109.54291       32.74212        9.53285
H        106.01950       33.27890        9.28345
H        107.48705       33.10952        8.24944
H        106.92688       31.73781        9.26665
N        106.28814       36.49203        9.71247
C        105.03186       37.23606        9.81312
C        105.31430       38.73212        9.89644
O        106.48079       39.10967        9.92197
C        104.04223       36.86591        8.65695
C        104.38115       37.34750        7.21289
C        103.71612       35.36644        8.68409
C        105.58457       36.72296        6.49659
H        106.86891       36.68266        8.89770
H        104.50950       36.96962       10.75873
H        103.08336       37.37083        8.89962
H        104.49382       38.45219        7.19877
H        103.49378       37.10519        6.58685
H        104.60765       34.76567        8.43330
H        103.35800       35.06894        9.69343
H        102.91432       35.13023        7.95295
H        106.54786       37.06242        6.90844
H        105.52813       35.61504        6.49415
H        105.58504       37.06240        5.43964
N        104.30094       39.65078        9.93043
C        104.53809       41.08865       10.00538
C        103.69233       41.76333       11.09812
O        103.73574       42.97927       11.20069
C        104.30529       41.69585        8.60134
C        104.96700       43.04123        8.39979
O        104.96135       43.60735        7.18001
O        105.58751       43.58749        9.29840
H        103.32596       39.33136        9.83003
H        105.60905       41.27172       10.24297
H        103.22133       41.72986        8.35866
H        104.80098       41.03009        7.86077
N        102.93189       41.04176       11.98234
C        102.15359       41.66823       13.05215
C        100.96740       42.42647       12.46687
O        100.13303       41.77849       11.85372
C        101.62472       40.58689       14.02417
C        100.87142       41.18409       15.19000
C        101.53562       41.99915       16.12280
C         99.49914       40.92847       15.35756
C        100.83824       42.55079       17.20127
C         98.80477       41.48496       16.43623
C         99.47373       42.29496       17.35747
H        102.94601       40.01428       11.93809
H        102.83768       42.32772       13.62255
H        102.47231       39.98887       14.42303
H        100.96773       39.89020       13.45662
H        102.59332       42.20472       16.01747
H         98.96442       40.30485       14.65196
H        101.35652       43.17618       17.91648
H         97.74746       41.28803       16.55802
H         98.93522       42.72334       18.19282
N        100.78376       43.77537       12.62607
C         99.66538       44.51472       12.05695
C         99.49830       44.29527       10.56382
O         98.40747       43.94444       10.13512
C        100.01576       45.98313       12.34510
C        100.74958       45.86792       13.65825
C        101.63155       44.64326       13.41719
H         98.73903       44.22293       12.60286
H        100.76503       46.35803       11.61255
H         99.14572       46.67441       12.33543
H        101.29650       46.77780       13.98441
H         99.99242       45.60938       14.43476
H        102.54553       44.88197       12.83157
H        101.89199       44.22324       14.41032
N        100.54451       44.49566        9.71001
C        100.42045       44.37883        8.25770
C        100.13052       42.95365        7.79830
O         99.79066       42.77729        6.63629
C        101.70190       44.87552        7.55590
C        102.00415       46.35473        7.85165
C        103.26447       46.79832        7.17023
O        103.35637       46.75619        5.95415
O        104.29504       47.26518        7.90092
H        101.44943       44.77693       10.11495
H         99.57357       45.02686        7.93822
H        101.58741       44.75574        6.45564
H        102.55188       44.24791        7.89079
H        102.12833       46.51806        8.94175
H        101.16177       46.98578        7.49802
N        100.26429       41.88575        8.63093
C         99.96953       40.53210        8.21675
H         98.90083       40.45103        7.92456
H        100.61593       40.24468        7.36142
H        100.15933       39.83119        9.05836
H        100.60620       42.02529        9.58450
Ca       106.29184       45.40592        6.85200
O        107.10445       46.38932        9.78200
H        107.15622       47.37776        9.80554
H        106.19136       46.18186       10.10368
O        106.46952       48.08418        5.38839
H        105.91403       48.90255        5.35479
H        107.22152       48.26765        4.77146
O        105.27137       45.07979        4.15218
H        105.37772       46.03083        3.89890
H        104.29362       44.93052        4.15102
O        109.04732       47.25718        7.35641
H        109.77823       47.59582        7.93187
H        109.05262       47.85923        6.57065
O        107.25751       42.85146        5.14616
H        107.76902       42.24275        4.55705
H        106.44414       42.33911        5.38064

Ca 1.0



