%chk=apoCaM-CA-Ng.loop4.water2.frame345.chk
%nprocshared=20
%mem=10GB
%nosave
#b3lyp/svp scf=(tight,noincore,xqc) Test 
#IOP(5/87=12) Density=Current Pop=(MK,readradii) iop(6/33=2) iop(6/42=6)

apoCaM-CA-Ng.loop4.water2.frame345 

   -3  1 
C         69.24240       77.37441       32.19743
C         69.49486       77.06412       30.75519
O         70.23359       77.79581       30.11606
H         68.15670       77.52969       32.36236
H         69.59304       76.52430       32.82012
H         69.79271       78.28968       32.50433
N         68.92759       75.95875       30.19174
C         69.14808       75.49751       28.82537
C         70.61235       75.21244       28.56910
O         71.37462       76.13818       28.38459
C         68.42097       76.35086       27.74209
C         68.40992       77.86811       27.85672
O         69.47284       78.67210       27.62642
O         67.34556       78.40993       28.11303
H         68.33794       75.36312       30.79358
H         68.65040       74.50391       28.74666
H         67.35020       76.05846       27.84019
H         68.72902       76.03402       26.72165
N         71.07695       73.92448       28.60740
C         72.44731       73.48460       28.33378
C         72.61258       73.30144       26.82770
O         72.85147       72.18005       26.39987
C         73.55011       74.34071       29.03422
C         74.96835       73.73218       28.87749
C         73.23453       74.57309       30.52797
C         75.17906       72.35646       29.52459
H         70.41155       73.17900       28.86390
H         72.52370       72.46571       28.77127
H         73.59397       75.33677       28.55011
H         75.68804       74.42856       29.35085
H         75.22446       73.66071       27.79892
H         72.28155       75.12290       30.65993
H         73.14531       73.61601       31.08026
H         74.03023       75.19198       30.99630
H         74.98747       72.38922       30.61672
H         74.53608       71.58352       29.05926
H         76.23499       72.04509       29.38251
N         72.37055       74.32307       25.95690
C         72.21360       74.11252       24.52222
C         73.53539       73.82552       23.80350
O         73.62342       72.75606       23.21703
C         71.38133       75.26108       23.90593
C         71.07228       75.02388       22.45525
O         71.41964       75.83534       21.61264
O         70.39081       73.92400       22.08021
H         72.12726       75.24580       26.33271
H         71.55741       73.21959       24.39339
H         71.86860       76.23964       24.03400
H         70.41379       75.32443       24.45143
N         74.61194       74.66879       23.76437
C         74.67753       75.94633       24.45563
C         76.00490       76.66340       24.30801
O         76.90215       76.10774       23.68989
H         75.43127       74.34491       23.22843
H         74.54775       75.71875       25.52474
H         73.90835       76.61583       24.05237
N         76.27441       77.89598       24.84518
C         75.40733       78.83341       25.57645
C         74.78855       78.26044       26.88531
O         73.67164       77.48150       26.57309
C         74.37470       79.50187       24.64224
C         73.76326       80.73638       25.25999
O         73.91709       81.82351       24.72609
O         73.05219       80.66044       26.39932
H         77.23923       78.23729       24.70270
H         76.07157       79.67130       25.88925
H         73.57351       78.79638       24.35217
H         74.90215       79.81661       23.71440
N         75.72380       77.42041       27.65519
C         77.03704       78.00963       27.95883
C         77.99175       76.94296       28.44154
O         77.59073       75.80429       28.63470
H         75.26043       77.14775       28.55355
H         76.94378       78.82393       28.71056
H         77.50209       78.42105       27.04624
N         79.30985       77.23683       28.61338
C         80.28562       76.23984       29.04816
C         80.09172       75.82535       30.50323
O         80.78612       74.91448       30.92817
C         81.72540       76.79298       28.88942
C         82.15925       76.98931       27.42212
C         82.40708       75.69336       26.67565
N         82.83798       75.72733       25.39384
O         82.24935       74.61191       27.22409
H         79.62704       78.19188       28.38331
H         80.17167       75.33149       28.41799
H         82.47100       76.11844       29.36513
H         81.77702       77.76806       29.42327
H         83.12174       77.54428       27.42492
H         81.41099       77.60389       26.87786
H         82.99076       76.62571       24.91327
H         83.02850       74.85211       24.88280
N         79.22614       76.47471       31.33892
C         79.12784       76.17381       32.76882
C         79.71465       77.30439       33.60309
O         79.84854       77.11650       34.80759
C         77.67159       75.84819       33.19384
C         77.16950       74.56520       32.52103
C         76.70692       77.00482       32.90355
H         78.67670       77.26275       30.97744
H         79.75459       75.28876       33.01352
H         77.66676       75.66705       34.29220
H         77.14681       74.67674       31.41696
H         77.83274       73.71402       32.78423
H         76.14444       74.32476       32.87699
H         76.62143       77.18266       31.81317
H         75.69446       76.76319       33.28998
H         77.05569       77.93683       33.39599
N         80.13057       78.47832       33.04712
C         80.85832       79.50148       33.77773
C         80.09697       80.81356       33.82321
O         79.95132       81.36084       34.90566
C         82.23047       79.71455       33.10251
C         83.04043       78.44044       33.04146
N         83.41922       77.80012       34.17247
O         83.36108       77.98398       31.95422
H         79.99559       78.64901       32.04060
H         81.05121       79.18828       34.82841
H         82.81215       80.48017       33.66023
H         82.07468       80.08826       32.06626
H         83.16813       78.16956       35.10027
H         83.97049       76.93041       34.12009
N         79.63437       81.40644       32.68206
C         79.14217       82.78122       32.64508
C         77.69759       82.87208       32.18926
O         77.33795       82.24329       31.20522
C         80.00667       83.58491       31.65109
C         81.48355       83.39926       31.90077
C         82.27436       82.77830       30.91941
C         82.07988       83.81335       33.10317
C         83.63476       82.56423       31.13797
C         83.44629       83.60050       33.31888
C         84.22635       82.97267       32.34021
O         85.53874       82.76350       32.56489
H         79.72356       80.90888       31.78449
H         79.24515       83.26846       33.63933
H         79.74632       84.66461       31.70105
H         79.77077       83.23250       30.62219
H         81.83547       82.44563       29.98678
H         81.48924       84.29374       33.87311
H         84.22439       82.07526       30.37303
H         83.89851       83.91838       34.24965
H         86.10567       82.32391       31.91471
N         76.85815       83.76782       32.79194
C         75.52664       84.13549       32.30733
C         74.46730       83.05847       32.47412
O         73.33739       83.32115       32.08346
C         75.56910       84.64400       30.84289
C         76.56451       85.79778       30.65282
C         76.51027       86.33089       29.25022
O         76.77050       85.60578       28.30304
O         76.18103       87.61844       29.03209
H         77.22046       84.31335       33.58856
H         75.17195       84.99034       32.92696
H         74.55574       85.01312       30.56850
H         75.81987       83.81825       30.14462
H         77.59764       85.45018       30.85938
H         76.31881       86.61721       31.36220
N         74.70972       81.86584       33.09194
C         73.66620       80.86378       33.29640
C         73.30476       80.72260       34.76982
O         72.41263       79.93906       35.06602
C         74.12274       79.50234       32.73636
C         74.53989       79.50253       31.25484
C         73.41687       79.82458       30.31041
O         72.84488       81.04223       30.30666
O         73.04116       78.98548       29.50965
H         75.64703       81.66533       33.46962
H         72.72558       81.16026       32.78742
H         73.31551       78.74912       32.87693
H         74.99949       79.17643       33.33260
H         74.90275       78.48063       31.01658
H         75.38172       80.20617       31.08632
N         73.92597       81.44915       35.74692
C         73.58534       81.34824       37.15218
H         72.76174       80.62857       37.34225
H         74.47787       81.01852       37.72354
H         73.26877       82.34527       37.52405
H         74.67514       82.11323       35.50906
Ca        71.63063       78.34409       27.06866
O         70.59787       78.94370       24.24067
H         71.17002       78.61220       23.50387
H         70.18761       78.12764       24.62334
O         70.14063       81.50821       28.16674
H         70.47484       82.15100       28.84125
H         69.18230       81.39210       28.38808

Ca 1.0



