%chk=apoCaM-CA-Ng.loop1.water3.frame440.chk
%nprocshared=20
%mem=10GB
%nosave
#b3lyp/svp scf=(tight,noincore,xqc) Test 
#IOP(5/87=12) Density=Current Pop=(MK,readradii) iop(6/33=2) iop(6/42=6)

apoCaM-CA-Ng.loop1.water3.frame440 

   0  1 
C        120.67812       86.39104       69.14078
C        120.41025       86.62324       67.68240
O        120.40582       85.67951       66.90510
H        119.80545       86.73358       69.73741
H        120.85661       85.31605       69.34939
H        121.57245       86.97311       69.45001
N        120.16359       87.88645       67.24769
C        119.84967       88.23007       65.86341
C        121.00000       88.01507       64.87181
O        120.79366       88.32771       63.71274
C        119.36367       89.70653       65.78478
C        120.41304       90.74150       66.11474
O        120.96474       90.80263       67.34105
O        120.74405       91.56114       65.27272
H        120.13477       88.62598       67.96463
H        118.98894       87.60264       65.54087
H        118.49409       89.84670       66.46283
H        119.00642       89.90801       64.75721
N        122.23349       87.54293       65.21980
C        123.37838       87.57977       64.30373
C        123.98010       86.20652       64.04361
O        124.09571       85.45249       65.00001
C        124.46944       88.45146       64.95166
C        123.98596       89.88401       65.21423
C        125.08474       90.78009       65.80560
C        125.67911       90.28586       67.13988
N        124.66733       90.15327       68.18983
H        122.41551       87.24501       66.18745
H        123.09706       88.04452       63.34685
H        125.36096       88.49470       64.29724
H        124.77327       87.97529       65.90766
H        123.11568       89.86969       65.89932
H        123.65112       90.33530       64.25553
H        124.65688       91.79466       65.95621
H        125.91126       90.86527       65.06684
H        126.44709       91.02070       67.46581
H        126.20073       89.31485       66.99974
H        125.14051       89.88465       69.08258
H        124.16958       91.06201       68.32926
H        123.98134       89.40209       67.95042
N        124.53201       85.81962       62.84274
C        124.55891       86.55540       61.56823
C        125.16497       87.94200       61.71612
O        124.45497       88.92894       61.58420
C        123.19197       86.51402       60.85498
C        122.80723       85.09900       60.52282
O        121.74371       84.86856       59.96915
O        123.60308       84.07804       60.90208
H        125.01275       84.90605       62.83644
H        125.21325       86.01235       60.85234
H        123.25831       87.06503       59.89427
H        122.39972       86.96209       61.48483
N        126.49422       88.11999       61.96141
C        127.44102       87.01591       61.92094
C        128.88378       87.43883       62.12495
O        129.13042       88.56570       62.52885
H        126.83488       89.08550       62.08210
H        127.37159       86.60160       60.89354
H        127.18388       86.23332       62.66519
N        129.92712       86.61452       61.80716
C        129.77889       85.27258       61.24403
C        130.15287       85.27521       59.77197
O        130.68448       86.26295       59.28073
C        130.56437       84.22026       62.05798
C        132.05795       84.42995       62.06813
O        132.86946       83.49282       61.54266
O        132.54699       85.42181       62.58411
H        130.87603       87.00581       61.89546
H        128.71927       84.95572       61.28280
H        130.35597       83.21675       61.62787
H        130.19643       84.21733       63.10666
N        129.82116       84.21322       58.98458
C        130.05276       84.17754       57.54948
C        129.35233       85.32533       56.85651
O        130.01052       86.09904       56.17625
H        129.34311       83.40481       59.41200
H        129.65390       83.22271       57.14237
H        131.14498       84.21043       57.34488
N        128.01185       85.50735       57.01732
C        127.26219       86.61102       56.42488
C        126.73482       87.49065       57.53942
O        126.15164       86.97202       58.48118
C        126.09613       86.08586       55.56035
C        126.59765       85.18503       54.42683
O        125.41946       87.18476       55.00364
H        127.49662       84.84428       57.61760
H        127.90894       87.22668       55.75993
H        125.40174       85.50464       56.21138
H        124.53731       86.85627       54.68998
H        127.11395       84.29165       54.83536
H        125.73675       84.83834       53.81644
H        127.29775       85.74284       53.76860
N        126.86822       88.84608       57.47180
C        126.41975       89.74692       58.53016
C        125.08550       90.40467       58.18884
O        124.72013       91.37142       58.84180
C        127.54688       90.75527       58.91907
C        127.83203       91.80203       57.80923
C        128.82065       89.98216       59.31003
C        128.83860       92.87562       58.23510
H        127.26830       89.25847       56.61652
H        126.20821       89.16931       59.45184
H        127.19365       91.30625       59.81999
H        126.88687       92.32955       57.56130
H        128.20710       91.31145       56.88743
H        128.58017       89.23333       60.08596
H        129.24941       89.45067       58.43357
H        129.59425       90.65408       59.73180
H        129.84216       92.44188       58.41963
H        128.94494       93.62627       57.42408
H        128.48716       93.39422       59.15263
N        124.26047       89.87439       57.23599
C        122.95383       90.43410       56.88139
C        121.93125       90.43132       58.02273
O        120.87106       91.01115       57.83489
C        122.35234       89.67620       55.66385
C        121.99704       88.21008       55.98849
O        123.26671       89.71931       54.59860
H        124.58508       89.04851       56.71869
H        123.12638       91.49083       56.57816
H        121.41821       90.20391       55.36055
H        122.77639       89.43189       53.78450
H        122.88430       87.62965       56.31114
H        121.23944       88.15608       56.79440
H        121.56532       87.71795       55.09222
N        122.15044       89.77532       59.20195
C        121.20381       89.70176       60.31839
C        119.93004       88.93512       59.94688
O        119.68703       88.66536       58.78010
C        120.91257       91.11654       60.90842
C        122.20106       91.82820       61.35104
O        120.01461       91.05618       61.98733
H        123.03884       89.27685       59.33178
H        121.69366       89.10434       61.11520
H        120.43500       91.74998       60.13406
H        120.48837       90.63865       62.75119
H        121.95662       92.82799       61.76756
H        122.72448       91.23610       62.13164
H        122.88554       91.97148       60.49356
N        119.08924       88.51410       60.93469
C        117.82934       87.80561       60.72507
C        117.83962       86.39468       61.32448
O        116.83634       85.70850       61.18511
C        116.67526       88.66842       61.30047
C        116.73566       88.82903       62.83674
C        115.71923       89.82509       63.41597
C        116.01497       91.27954       63.00090
N        115.11268       92.21275       63.67417
H        119.36085       88.71276       61.89795
H        117.64119       87.69053       59.63512
H        115.69269       88.22193       61.03292
H        116.74269       89.65825       60.80438
H        117.72755       89.18050       63.15307
H        116.56527       87.83394       63.30123
H        115.80260       89.76926       64.52415
H        114.68591       89.53536       63.12912
H        115.90356       91.40176       61.90344
H        117.06335       91.53562       63.27645
H        115.23302       92.14441       64.71113
H        115.34403       93.18777       63.37446
H        114.12098       92.00395       63.41739
N        118.92617       85.88112       61.98265
C        118.96222       84.52723       62.54172
C        117.90237       84.35685       63.61394
O        117.93271       85.06706       64.60968
C        120.37522       84.21368       63.10580
C        120.52447       82.84834       63.81317
C        120.07094       81.64121       63.02104
O        119.03173       81.08335       63.33021
O        120.80850       81.11977       62.02127
H        119.77283       86.45850       62.07525
H        118.77552       83.80363       61.71834
H        120.65955       84.99992       63.84229
H        121.09230       84.26349       62.27561
H        119.92098       82.89312       64.74281
H        121.58248       82.70530       64.12789
N        116.94408       83.39695       63.46978
C        115.92398       83.11767       64.45877
H        114.92122       83.24787       64.00136
H        116.02687       82.06421       64.79664
H        116.00082       83.77852       65.34672
H        116.94094       82.81232       62.62037
Ca       122.66302       82.11868       61.31374
O        124.36925       81.58395       58.22143
H        123.83677       82.28864       57.77389
H        124.52144       80.90347       57.51814
O        120.52725       81.65129       59.25734
H        120.64260       80.90257       58.62045
H        120.66286       82.46807       58.71537
O        122.99295       78.82232       58.99563
H        122.66063       78.12118       59.61064
H        123.37779       78.32180       58.23267

Ca 1.0



