%chk=apoCaM-CA-Ng.loop4.water5.frame819.chk
%nprocshared=20
%mem=10GB
%nosave
#b3lyp/svp scf=(tight,noincore,xqc) Test 
#IOP(5/87=12) Density=Current Pop=(MK,readradii) iop(6/33=2) iop(6/42=6)

apoCaM-CA-Ng.loop4.water5.frame819 

   -3  1 
C         85.02772       95.40398       80.41109
C         86.22218       95.85484       81.20353
O         86.04824       96.33316       82.31385
H         84.34562       96.26343       80.23968
H         85.32697       94.99436       79.42244
H         84.48611       94.61202       80.96904
N         87.47812       95.71679       80.69224
C         88.70801       96.13549       81.36496
C         88.86189       95.40593       82.67767
O         89.08552       96.02354       83.71092
C         88.77148       97.67502       81.50954
C         88.65154       98.35292       80.17532
O         88.56353       99.56875       80.11372
O         88.56716       97.61747       79.05002
H         87.58229       95.27700       79.76458
H         89.56612       95.82468       80.72731
H         89.72487       97.98610       81.98791
H         87.93149       98.02083       82.14971
N         88.72053       94.05381       82.69646
C         88.84102       93.26838       83.91802
C         90.32190       93.05003       84.24696
O         91.14852       93.33671       83.39112
C         88.08540       91.90584       83.77057
C         88.73770       90.97926       82.70348
C         86.58936       92.15064       83.48894
C         88.15879       89.56566       82.68759
H         88.46625       93.58967       81.81354
H         88.34576       93.84264       84.73212
H         88.13482       91.38672       84.74210
H         89.81865       90.86560       82.92969
H         88.64555       91.40968       81.68517
H         86.15553       92.79396       84.28225
H         86.43385       92.64593       82.50748
H         86.01837       91.20107       83.49557
H         88.71055       88.95482       81.94185
H         88.27781       89.09453       83.68638
H         87.08908       89.56572       82.40005
N         90.77555       92.50934       85.41802
C         89.97489       92.25481       86.60798
C         90.62647       93.02027       87.75123
O         91.01543       92.44090       88.75688
C         89.90656       90.73253       86.86640
C         88.95289       90.34348       87.96862
O         88.79276       89.04135       88.26868
O         88.30530       91.18185       88.57754
H         91.78828       92.31915       85.49247
H         88.94390       92.63604       86.47461
H         90.92365       90.34786       87.09453
H         89.56199       90.21989       85.94569
N         90.85502       94.34979       87.59635
C         91.61376       95.15399       88.52984
C         90.91688       95.37837       89.84009
O         91.54299       95.20035       90.87598
H         90.54706       94.80851       86.72514
H         91.75009       96.16085       88.07986
H         92.62797       94.72052       88.68190
N         89.64507       95.86743       89.86504
C         89.04660       96.42935       91.06979
C         87.89087       95.63934       91.65747
O         87.52138       95.97697       92.77192
C         88.68657       97.91194       90.80361
C         87.82797       98.12306       89.57755
O         86.59620       97.59685       89.49482
O         88.25782       98.77489       88.63883
H         89.12826       95.93988       88.97558
H         89.79745       96.42872       91.89085
H         89.63959       98.46160       90.63955
H         88.18911       98.35813       91.69098
N         87.30202       94.56194       91.06042
C         86.27840       93.78604       91.76144
C         85.02991       94.58134       92.12341
O         84.27840       94.12753       92.97441
H         87.61092       94.25105       90.12797
H         86.73555       93.41328       92.70468
H         85.97779       92.89620       91.16777
N         84.72422       95.75335       91.49635
C         83.56728       96.59359       91.79047
C         82.23539       95.88747       91.58724
O         81.22771       96.42360       92.02435
C         83.66267       97.28876       93.17057
C         84.92804       98.15958       93.27023
C         84.96919       99.05805       94.48056
N         86.04518       99.85417       94.68111
O         84.03879       99.08797       95.27297
H         85.33437       96.06792       90.73761
H         83.55853       97.43167       91.05716
H         83.62917       96.55528       94.00457
H         82.78495       97.96686       93.26377
H         85.00163       98.81357       92.37439
H         85.80815       97.50004       93.29927
H         86.83842       99.83956       94.02241
H         86.08779      100.48666       95.49368
N         82.13310       94.76663       90.81072
C         80.83992       94.18674       90.45121
C         80.48483       94.52025       89.01378
O         79.32198       94.33680       88.66436
C         80.77340       92.66029       90.72544
C         81.78606       91.86368       89.88396
C         80.96918       92.35614       92.21570
H         82.97908       94.37580       90.37913
H         80.04043       94.66714       91.05688
H         79.75440       92.30819       90.44685
H         81.65671       90.77553       90.06423
H         81.62601       92.04842       88.80073
H         82.83101       92.13197       90.14316
H         80.85956       91.26580       92.40009
H         81.97650       92.67336       92.55687
H         80.20139       92.88591       92.81874
N         81.39592       95.01130       88.11935
C         81.02413       95.43708       86.77775
C         81.69971       96.75041       86.41723
O         82.50286       97.26098       87.19495
C         81.32563       94.31584       85.74343
C         82.64208       94.43977       85.00119
N         83.82909       94.48293       85.64377
O         82.62150       94.52920       83.78109
H         82.39064       95.07337       88.38266
H         79.92141       95.59043       86.75219
H         80.53060       94.35912       84.96594
H         81.22631       93.32117       86.23116
H         83.88285       94.42988       86.66872
H         84.70017       94.59753       85.10364
N         81.46213       97.32481       85.21615
C         82.19888       98.47894       84.71473
C         81.59451       98.91278       83.40744
O         81.38711       98.05936       82.54900
C         83.68670       98.12531       84.46194
C         84.44900       99.34391       83.98648
C         84.95527       99.41312       82.67672
C         84.64001      100.43459       84.85202
C         85.63460      100.55534       82.24146
C         85.32261      101.57325       84.41627
C         85.81967      101.64010       83.11100
O         86.46848      102.74984       82.70430
H         80.73924       96.88695       84.61866
H         82.13093       99.30996       85.45220
H         83.73042       97.31447       83.70056
H         84.18238       97.74143       85.37743
H         84.81189       98.59377       81.98543
H         84.25969      100.40312       85.86544
H         86.01232      100.59848       81.22790
H         85.46148      102.40620       85.09418
H         86.82169      102.84069       81.80786
N         81.33079      100.22295       83.15530
C         80.69759      100.64280       81.92117
C         81.69859      101.35313       81.02709
O         82.05576      102.47831       81.35133
C         79.50090      101.57007       82.21541
C         78.45962      100.92410       83.13654
C         77.34249      101.88733       83.41860
O         76.19635      101.60953       83.10554
O         77.60011      103.06123       84.02840
H         81.60422      100.94033       83.84684
H         80.29437       99.75754       81.41355
H         79.01627      101.85433       81.25480
H         79.87630      102.49666       82.70574
H         78.92671      100.64598       84.10569
H         78.06149      100.00396       82.65650
N         82.22606      100.81239       79.88544
C         82.08188       99.42027       79.43084
C         80.63653       99.07264       79.10540
O         79.80877       99.96731       78.99333
C         82.92285       99.19849       78.14504
C         84.43445       99.54592       78.27483
C         84.91793      100.20113       76.99495
O         85.99489       99.76662       76.31531
O         84.34233      101.19823       76.58824
H         82.83825      101.43882       79.34216
H         82.45043       98.75613       80.24318
H         82.45096       99.88186       77.40657
H         82.82078       98.16944       77.73203
H         85.01951       98.64653       78.57280
H         84.61087      100.29376       79.06981
N         80.26315       97.76811       78.97574
C         78.89911       97.35124       78.71377
H         78.20667       98.21120       78.59445
H         78.86933       96.74512       77.78522
H         78.53531       96.73078       79.56036
H         80.97057       97.02806       79.09985
Ca        87.51944       98.49431       77.30709
O         90.40184       98.20061       74.92482
H         90.04150       98.11107       74.00690
H         91.33490       98.50634       74.79618
O         91.01301      101.59642       77.42126
H         91.72331      101.39143       76.76264
H         90.77825      102.54226       77.24585
O         91.69458       98.45780       77.83052
H         92.57375       98.53526       77.38122
H         91.78948       97.67552       78.42998
O         87.90866      102.13183       77.94123
H         88.40856      102.81823       78.45078
H         87.16025      101.87670       78.53705
O         88.66750      100.95094       74.89468
H         87.84271      101.43105       74.63052
H         89.26947      101.04344       74.11391

Ca 1.0



