%chk=apoCaM-CA-Ng.loop4.water3.frame493.chk
%nprocshared=20
%mem=10GB
%nosave
#b3lyp/svp scf=(tight,noincore,xqc) Test 
#IOP(5/87=12) Density=Current Pop=(MK,readradii) iop(6/33=2) iop(6/42=6)

apoCaM-CA-Ng.loop4.water3.frame493 

   -3  1 
C         56.42075       59.88947       96.23175
C         56.15570       60.27409       97.65553
O         55.17285       60.95870       97.89156
H         57.32913       59.25936       96.14162
H         55.55112       59.31954       95.83999
H         56.55558       60.80600       95.61987
N         56.96743       59.84032       98.66595
C         56.73972       60.14046      100.07654
C         55.36023       59.68757      100.51210
O         54.57517       60.48425      100.98761
C         57.17291       61.58481      100.46679
C         56.88205       62.74714       99.53668
O         55.65066       63.22269       99.25992
O         57.83250       63.32869       99.03629
H         57.75677       59.21886       98.43327
H         57.42177       59.50230      100.68512
H         58.28593       61.53799      100.51271
H         56.84026       61.81521      101.50092
N         55.04719       58.36280      100.41160
C         53.79349       57.71560      100.79891
C         53.52120       57.87935      102.29404
O         53.79518       56.94484      103.03437
C         52.60552       58.11216       99.87104
C         51.29469       57.34760      100.20687
C         52.97769       57.91940       98.38789
C         51.37093       55.82178      100.06087
H         55.77819       57.73734      100.03656
H         53.97488       56.63059      100.63072
H         52.39516       59.19343       99.99953
H         50.48864       57.71508       99.53515
H         50.98797       57.58026      101.24812
H         52.13065       58.21954       97.73466
H         53.84529       58.55418       98.11771
H         53.24978       56.86639       98.16918
H         51.62593       55.52599       99.02293
H         52.11198       55.38577      100.76106
H         50.38129       55.38077      100.30211
N         52.97118       59.01765      102.81200
C         52.80127       59.25073      104.24104
C         51.42247       58.81372      104.75801
O         51.43672       57.97913      105.65310
C         53.21757       60.68783      104.61219
C         54.69378       60.91353      104.41356
O         55.09096       61.78269      103.65565
O         55.58764       60.17722      105.10135
H         52.67611       59.76794      102.17644
H         53.52006       58.60763      104.80148
H         52.99889       60.87095      105.68640
H         52.66560       61.41754      103.99573
N         50.19081       59.21606      104.30730
C         49.87988       60.12178      103.21641
C         50.05937       61.58722      103.57023
O         50.46263       61.88143      104.68596
H         49.37315       58.75877      104.74209
H         48.80137       60.00313      102.97571
H         50.44052       59.80159      102.32509
N         49.73724       62.59937      102.70440
C         49.10528       62.41142      101.39554
C         49.94926       61.55521      100.46278
O         51.14288       61.44046      100.69397
C         48.75939       63.78221      100.75660
C         49.97194       64.62618      100.47166
O         50.12406       65.81480      101.08538
O         50.80790       64.25409       99.66428
H         49.89283       63.56518      103.03402
H         48.15395       61.87175      101.59286
H         48.09315       64.33020      101.45790
H         48.20623       63.66531       99.80484
N         49.41303       60.82935       99.43997
C         48.01608       60.84087       99.03984
C         47.29705       59.60770       99.50605
O         47.86394       58.80007      100.23010
H         50.03432       60.18306       98.92914
H         47.97163       60.92679       97.93250
H         47.45152       61.68949       99.45759
N         46.00969       59.41119       99.11123
C         45.21414       58.25683       99.50640
C         45.16640       57.21993       98.39488
O         44.67046       56.13071       98.64799
C         43.85571       58.70052      100.11246
C         42.96903       59.61861       99.24686
C         42.36712       58.93457       98.05560
N         41.46531       57.94085       98.22348
O         42.65663       59.30985       96.93096
H         45.60690       60.08459       98.44339
H         45.73691       57.71549      100.32654
H         44.10158       59.28791      101.02439
H         43.27834       57.81120      100.44670
H         43.54156       60.51491       98.93487
H         42.12554       59.99194       99.86706
H         41.18483       57.63633       99.16656
H         41.01788       57.49692       97.41168
N         45.78470       57.43469       97.19170
C         46.07745       56.36825       96.23759
C         45.38488       56.54783       94.89812
O         45.55224       55.67586       94.05593
C         47.62337       56.25204       96.03870
C         48.33743       55.95316       97.36672
C         48.24758       57.50504       95.39012
H         46.15767       58.36640       96.97233
H         45.71853       55.39324       96.63539
H         47.81817       55.39398       95.35756
H         49.42699       55.81676       97.19458
H         48.20358       56.78647       98.08933
H         47.93871       55.02008       97.81692
H         49.33060       57.33584       95.21333
H         47.77515       57.72091       94.40897
H         48.15173       58.40150       96.03661
N         44.58986       57.62055       94.61970
C         43.90602       57.78149       93.34189
C         44.30395       59.05922       92.62487
O         43.78146       59.26296       91.53670
C         42.38021       57.77303       93.57169
C         41.89475       56.45927       94.12998
N         42.03315       55.31158       93.42623
O         41.35133       56.43222       95.22154
H         44.43638       58.34276       95.33632
H         44.15663       56.95205       92.64603
H         41.84560       57.94118       92.61169
H         42.11355       58.60428       94.26181
H         42.47171       55.31073       92.49439
H         41.68848       54.41949       93.81088
N         45.21094       59.95976       93.12055
C         45.50294       61.20419       92.40491
C         46.69450       61.97638       92.95180
O         47.12018       61.76457       94.07900
C         44.24214       62.11512       92.38496
C         43.67305       62.33355       93.77830
C         44.35676       63.09625       94.74228
C         42.44215       61.74853       94.13016
C         43.83197       63.25849       96.02683
C         41.91945       61.91011       95.41690
C         42.61260       62.66123       96.37036
O         42.10015       62.80048       97.60967
H         45.70053       59.75971       94.00395
H         45.79447       60.92620       91.36697
H         43.46930       61.61960       91.76459
H         44.44434       63.08701       91.88654
H         45.29541       63.57060       94.51173
H         41.89107       61.15102       93.41468
H         44.37714       63.84657       96.75453
H         40.97743       61.44303       95.67562
H         42.55353       63.30556       98.29982
N         47.28690       62.90367       92.13882
C         48.39057       63.79632       92.48666
C         49.69806       63.10897       92.86665
O         50.65528       63.83786       93.09056
C         47.96228       64.81804       93.56064
C         46.80711       65.70621       93.06196
C         46.41877       66.76581       94.05734
O         45.52452       67.54890       93.78114
O         47.04790       66.87438       95.24465
H         46.90965       63.01003       91.18399
H         48.63671       64.38800       91.57490
H         48.82382       65.48843       93.77710
H         47.68186       64.29850       94.50119
H         45.91638       65.08338       92.83901
H         47.11889       66.21509       92.12328
N         49.85761       61.75239       92.91759
C         51.13618       61.12055       93.23166
C         51.67067       60.33561       92.04002
O         52.76557       59.80087       92.15217
C         50.98854       60.17817       94.44785
C         50.41187       60.81734       95.72431
C         51.26753       61.91163       96.29732
O         51.81907       61.76315       97.51545
O         51.43750       62.95286       95.68641
H         49.07142       61.12802       92.70075
H         51.90628       61.88468       93.46795
H         51.98073       59.73717       94.69347
H         50.30881       59.34783       94.16029
H         50.32762       60.00893       96.48263
H         49.39072       61.20928       95.53614
N         50.97102       60.21970       90.87057
C         51.45121       59.47924       89.72250
H         52.45521       59.03714       89.88904
H         50.73886       58.65881       89.49419
H         51.50680       60.15971       88.84737
H         50.04868       60.66211       90.76257
Ca        53.55148       62.60560       99.77466
O         53.66949       65.87165      100.05711
H         53.13689       65.54260       99.29028
H         53.01823       66.36323      100.61779
O         54.38460       64.39866       96.95046
H         54.81624       63.59521       96.56478
H         53.41451       64.21664       96.88172
O         52.66299       63.68163      102.43178
H         53.56634       63.30541      102.29017
H         52.82983       64.58313      102.80263

Ca 1.0



