%chk=apoCaM-CA-Ng.loop1.water4.frame186.chk
%nprocshared=20
%mem=10GB
%nosave
#b3lyp/svp scf=(tight,noincore,xqc) Test 
#IOP(5/87=12) Density=Current Pop=(MK,readradii) iop(6/33=2) iop(6/42=6)

apoCaM-CA-Ng.loop1.water4.frame186 

   0  1 
C        122.12028       39.43997       15.73103
C        122.34314       40.78652       15.11072
O        123.01841       40.87752       14.09533
H        121.03366       39.21785       15.76671
H        122.63517       38.64639       15.14958
H        122.52496       39.44104       16.76596
N        121.80832       41.89296       15.69504
C        122.01643       43.24628       15.18974
C        123.50177       43.56417       15.08315
O        123.93364       43.99702       14.02519
C        121.24869       44.30218       16.02967
C        121.63602       44.39698       17.48436
O        122.13173       45.54993       17.97196
O        121.45683       43.45685       18.24175
H        121.23762       41.75334       16.54128
H        121.58170       43.31418       14.16714
H        120.15964       44.08247       15.97610
H        121.40730       45.29658       15.55789
N        124.34822       43.32745       16.12387
C        125.78481       43.60258       16.07309
C        126.48196       42.76445       15.00939
O        126.25217       41.56308       15.00439
C        126.47326       43.30078       17.42085
C        125.87589       44.11141       18.57511
C        126.77004       44.04386       19.81697
C        126.12401       44.70813       21.04333
N        125.75361       46.10464       20.80307
H        123.94676       42.92592       16.98249
H        125.92161       44.67782       15.89616
H        127.54360       43.57983       17.31184
H        126.42871       42.21654       17.66759
H        124.86657       43.72050       18.82042
H        125.79087       45.17338       18.26193
H        127.73898       44.54084       19.58600
H        126.97799       42.98269       20.07632
H        126.85081       44.65884       21.88387
H        125.21750       44.13473       21.33775
H        126.57900       46.65050       20.46590
H        124.97523       46.16254       20.10750
H        125.40849       46.52074       21.69744
N        127.40515       43.24807       14.11800
C        127.88686       44.62214       13.97335
C        128.49188       45.15414       15.27018
O        127.93925       46.07419       15.85752
C        126.82262       45.54306       13.34961
C        126.22429       44.91007       12.09504
O        127.20890       44.58799       11.15535
O        125.32677       45.77842       11.46761
H        127.84154       42.55931       13.48445
H        128.69884       44.62202       13.21396
H        127.32189       46.49470       13.08738
H        125.99416       45.76595       14.04291
N        129.65131       44.65492       15.78724
C        130.47856       43.69861       15.06696
C        131.79857       43.40170       15.75626
O        131.96655       43.74535       16.91768
H        129.98547       45.05118       16.67918
H        130.72975       44.17760       14.09948
H        129.93492       42.74863       14.88127
N        132.83947       42.81970       15.09030
C        132.81328       42.47571       13.66944
C        133.39308       43.61457       12.84467
O        133.86248       44.59313       13.41196
C        133.53272       41.13028       13.42950
C        134.98742       41.15478       13.82338
O        135.43652       40.33022       14.78874
O        135.76884       41.90906       13.26576
H        133.73842       42.74231       15.59190
H        131.76681       42.34035       13.32656
H        133.46153       40.84493       12.35856
H        133.01193       40.34616       14.02097
N        133.36550       43.56617       11.48147
C        133.89632       44.63324       10.64656
C        133.12644       45.94145       10.73977
O        133.57418       46.90443       10.13439
H        132.97788       42.73296       11.01419
H        133.87579       44.31347        9.58211
H        134.95717       44.80557       10.93002
N        131.96161       46.05777       11.44349
C        131.20155       47.29947       11.55796
C        131.08394       47.68974       13.01928
O        130.95701       46.81896       13.86788
C        129.80357       47.12680       10.92427
C        129.91616       46.86672        9.41834
O        129.04831       48.29368       11.12303
H        131.56689       45.23041       11.91188
H        131.70365       48.13516       11.02126
H        129.29966       46.26652       11.42018
H        128.09821       48.05100       10.96610
H        130.50651       45.94959        9.21795
H        128.90362       46.73869        8.98202
H        130.40825       47.72830        8.91677
N        131.06017       49.00686       13.37047
C        130.92829       49.47209       14.75013
C        129.55720       50.08637       15.01937
O        129.28565       50.36968       16.17899
C        132.08454       50.44937       15.13249
C        132.17219       51.65550       14.15695
C        133.42111       49.69082       15.20590
C        133.09692       52.77502       14.63398
H        131.09735       49.70674       12.61588
H        130.97092       48.60454       15.44617
H        131.86901       50.83172       16.15538
H        131.16736       52.10343       14.04059
H        132.51944       51.31984       13.15628
H        133.34240       48.85427       15.93270
H        133.69926       49.27690       14.21382
H        134.23802       50.35024       15.56229
H        134.14525       52.43090       14.73197
H        133.08014       53.60101       13.89079
H        132.74206       53.17236       15.60814
N        128.62951       50.28964       14.03643
C        127.26616       50.75617       14.30015
C        126.27252       49.71920       13.79268
O        126.69043       48.77269       13.14430
C        127.05638       52.14434       13.65339
C        127.99202       53.18070       14.28372
O        125.73374       52.57606       13.83885
H        128.87534       50.09146       13.05634
H        127.09232       50.84757       15.39514
H        127.28200       52.05332       12.56334
H        125.48381       53.10602       13.03746
H        127.83437       54.17284       13.81320
H        127.79015       53.26652       15.37391
H        129.05108       52.89625       14.14098
N        124.94384       49.79877       14.09576
C        123.98111       48.76225       13.72292
C        122.87069       49.29931       12.83549
O        122.78015       50.50070       12.61881
C        123.40332       48.08637       14.99777
C        122.68097       49.05523       15.94434
O        124.44535       47.46731       15.70892
H        124.60966       50.59521       14.65620
H        124.48348       47.96843       13.12824
H        122.64887       47.32471       14.68772
H        124.33297       46.48686       15.60751
H        123.38150       49.80820       16.36024
H        121.85432       49.58219       15.42605
H        122.25430       48.48860       16.79917
N        121.99204       48.41895       12.26989
C        120.83351       48.81887       11.46589
C        120.12072       47.67642       10.71601
O        119.15786       47.99173       10.03039
C        119.81731       49.56359       12.37007
C        119.36878       48.70946       13.57133
C        118.48581       49.51936       14.52677
C        118.21541       48.73880       15.82055
N        117.45163       49.54912       16.76855
H        122.17298       47.43104       12.46187
H        121.18157       49.51225       10.66797
H        118.93222       49.88771       11.77925
H        120.29748       50.48512       12.75921
H        120.27067       48.39088       14.13235
H        118.83241       47.79675       13.23077
H        117.52877       49.78538       14.02611
H        119.01934       50.45613       14.79861
H        119.18738       48.46426       16.29004
H        117.65991       47.80232       15.59269
H        116.51783       49.79181       16.36603
H        117.31451       49.00572       17.65120
H        117.97706       50.42542       16.99492
N        120.51133       46.36219       10.74980
C        119.82141       45.29918       10.02785
C        119.29565       44.29465       11.03084
O        120.07747       43.74958       11.79918
C        120.77039       44.58512        9.03901
C        121.26010       45.46757        7.87819
C        122.18072       46.56620        8.32274
O        123.32233       46.26798        8.96856
O        121.90784       47.73213        8.08798
H        121.32341       46.05619       11.29231
H        118.96638       45.69535        9.43771
H        120.20323       43.74394        8.58133
H        121.64182       44.14941        9.57686
H        120.38423       45.88724        7.33662
H        121.82359       44.82829        7.16666
N        117.97019       43.99032       11.07353
C        117.43477       43.03495       12.01807
H        116.34131       42.92043       11.86154
H        117.92018       42.04581       11.87529
H        117.61292       43.38943       13.05550
H        117.31966       44.44011       10.41196
Ca       125.96642       45.18909        9.36403
O        126.52475       47.55074        7.75237
H        126.08340       47.80410        8.60220
H        125.77859       47.31135        7.14707
O        128.32041       43.66375        8.25386
H        129.04220       44.33339        8.15838
H        128.68876       42.99031        8.87883
O        123.73889       42.89503        7.92101
H        123.90417       43.39644        7.08323
H        122.85899       42.46230        7.78196
O        124.36398       42.75752       11.14415
H        124.85889       42.05634       11.63821
H        123.43041       42.67904       11.46343

Ca 1.0



