%chk=apoCaM-CA-Ng.loop1.water2.frame802.chk
%nprocshared=20
%mem=10GB
%nosave
#b3lyp/svp scf=(tight,noincore,xqc) Test 
#IOP(5/87=12) Density=Current Pop=(MK,readradii) iop(6/33=2) iop(6/42=6)

apoCaM-CA-Ng.loop1.water2.frame802 

   0  1 
C         45.73907       87.45303       64.46042
C         45.33106       88.79517       64.98672
O         46.18419       89.56769       65.39908
H         46.83951       87.32082       64.51996
H         45.24305       86.65361       65.04945
H         45.42517       87.36787       63.39797
N         44.01693       89.14063       64.97870
C         43.50773       90.43426       65.41978
C         42.56204       90.27548       66.59800
O         42.24419       89.15677       66.97837
C         42.93386       91.22694       64.20983
C         42.51392       90.37380       63.02044
O         41.44193       89.55777       63.03972
O         43.18685       90.41609       62.00241
H         43.33667       88.45169       64.62086
H         44.33242       91.05203       65.84295
H         43.79015       91.82921       63.83082
H         42.16021       91.96448       64.51493
N         42.17430       91.38274       67.29963
C         41.44675       91.33014       68.56300
C         40.14606       92.08129       68.43708
O         40.15530       93.24918       68.07169
C         42.33507       91.92719       69.67771
C         41.77780       91.82895       71.11633
C         41.48035       90.38050       71.54292
C         41.28157       90.25500       73.06037
N         40.95963       88.87522       73.42886
H         42.47710       92.31075       66.96380
H         41.24110       90.27498       68.83655
H         42.55386       92.99512       69.45447
H         43.30289       91.37971       69.66621
H         40.86376       92.45021       71.24362
H         42.56661       92.24502       71.78156
H         42.33668       89.72977       71.26388
H         40.56917       90.02360       71.01723
H         40.46708       90.92805       73.40730
H         42.22596       90.55567       73.56845
H         40.02607       88.61183       73.03761
H         41.68963       88.21950       73.06553
H         40.92520       88.79433       74.47075
N         38.97795       91.46578       68.76129
C         37.68088       92.12841       68.66882
C         36.59939       91.36461       69.41356
O         36.75951       90.18251       69.68526
C         37.27343       92.37627       67.20120
C         37.57055       91.17597       66.36227
O         37.05421       90.09001       66.57335
O         38.52954       91.31768       65.43956
H         39.02912       90.50395       69.12597
H         37.78718       93.09127       69.20370
H         37.89672       93.20791       66.80838
H         36.21242       92.68043       67.09008
N         35.49944       92.00286       69.90389
C         35.22081       93.42025       69.75518
C         35.68380       94.12896       70.98932
O         36.85702       94.01504       71.31803
H         34.89146       91.47650       70.53472
H         34.13827       93.56575       69.55104
H         35.75934       93.87271       68.90512
N         34.83161       94.88663       71.72686
C         35.25735       95.55746       72.94888
C         34.45656       95.03011       74.11270
O         33.42777       94.40452       73.89407
C         35.09635       97.07744       72.80040
C         35.86266       97.58954       71.60973
O         35.27455       98.14378       70.69443
O         37.19797       97.42794       71.53995
H         33.85108       94.98494       71.41967
H         36.32672       95.33526       73.16013
H         35.46658       97.58897       73.71416
H         34.01777       97.31984       72.67289
N         34.89105       95.19810       75.39326
C         34.14673       94.66518       76.52099
C         33.98054       93.15610       76.46162
O         33.08116       92.65844       77.12292
H         35.76780       95.71107       75.57258
H         33.13838       95.13338       76.50308
H         34.62926       94.94024       77.48313
N         34.80598       92.36196       75.71214
C         34.61279       90.91875       75.57092
C         34.51971       90.52589       74.10198
O         34.69288       91.36788       73.23187
C         35.71683       90.13626       76.32866
C         37.13423       90.41475       75.82129
O         35.66122       90.45495       77.69508
H         35.60751       92.78890       75.22492
H         33.64416       90.62075       76.02781
H         35.54714       89.04124       76.20883
H         34.87181       89.98092       78.06880
H         37.23004       90.14466       74.74913
H         37.40388       91.48218       75.95927
H         37.85768       89.80176       76.40128
N         34.21437       89.23922       73.76301
C         34.03649       88.78795       72.38267
C         32.86680       89.54602       71.78431
O         33.03701       90.18078       70.75523
C         33.83456       87.24183       72.31569
C         35.09421       86.52320       72.88269
C         33.56823       86.79487       70.86153
C         34.96703       85.00151       72.95613
H         34.06406       88.56604       74.52688
H         34.95739       89.01642       71.79760
H         32.94933       86.96875       72.93129
H         35.29226       86.86371       73.91883
H         35.98583       86.78201       72.27000
H         34.43737       87.03552       70.21203
H         33.36577       85.70710       70.80536
H         32.66758       87.29483       70.44930
H         34.87239       84.54978       71.94904
H         35.88331       84.58216       73.42348
H         34.09124       84.71945       73.57768
N         31.64840       89.55356       72.38903
C         30.57369       90.43282       71.92916
C         29.23533       90.05505       72.54273
O         29.18277       89.25926       73.47247
C         30.97484       91.90768       72.27360
C         30.00680       93.00221       71.82121
O         31.14593       92.02323       73.66582
H         31.51748       88.96094       73.22279
H         30.45653       90.28796       70.83143
H         31.93009       92.13421       71.74442
H         32.09181       92.26445       73.83695
H         29.83003       92.94237       70.72726
H         29.04750       92.94417       72.37338
H         30.44503       93.99699       72.05285
N         28.09256       90.59238       72.03552
C         26.77208       90.34673       72.58297
C         25.87906       89.72814       71.51682
O         25.39254       88.62613       71.72490
C         26.22307       91.67701       73.16966
C         24.85126       91.51177       73.82369
O         26.15364       92.67514       72.18230
H         28.15913       91.22395       71.22352
H         26.83147       89.63058       73.43377
H         26.94498       91.99194       73.96217
H         26.33323       93.54581       72.62444
H         24.53296       92.48059       74.26521
H         24.09347       91.19959       73.07512
H         24.90233       90.75570       74.63493
N         25.58502       90.40689       70.37066
C         24.61370       89.95576       69.38428
C         25.16861       90.12700       67.98024
O         25.61619       91.21789       67.65233
C         23.34779       90.80418       69.59001
C         22.19477       90.43311       68.64878
C         20.93872       91.22027       69.04096
C         19.76279       90.92188       68.10649
N         18.56481       91.63847       68.54448
H         25.97898       91.34756       70.23612
H         24.31893       88.89640       69.55640
H         23.58641       91.88468       69.47291
H         23.01051       90.63658       70.63802
H         21.97832       89.34491       68.72943
H         22.48036       90.66593       67.59981
H         21.15593       92.31059       69.00962
H         20.65504       90.94347       70.08078
H         19.55267       89.82935       68.10155
H         20.02633       91.23621       67.07204
H         17.78348       91.44351       67.87821
H         18.28398       91.31314       69.49852
H         18.74553       92.66860       68.56514
N         25.10249       89.11264       67.06850
C         25.53843       89.28754       65.68609
C         27.05188       89.47315       65.59655
O         27.45386       90.53779       65.14871
C         24.98574       88.16643       64.76857
C         25.40495       88.34787       63.30143
C         24.74538       87.31986       62.42679
O         24.95375       86.00734       62.64658
O         24.01980       87.66949       61.50945
H         24.65442       88.22575       67.34541
H         25.05586       90.21637       65.30038
H         23.87470       88.20738       64.82878
H         25.29229       87.15690       65.09727
H         26.50676       88.23657       63.20905
H         25.12167       89.36544       62.95316
N         27.98102       88.53963       65.96162
C         27.71536       87.23325       66.52628
H         26.65016       87.04283       66.72046
H         28.10547       86.45364       65.83722
H         28.24099       87.14327       67.49858
H         28.97639       88.77521       65.82362
Ca        39.83148       89.76049       64.55228
O         37.21258       87.29899       65.00733
H         36.88917       87.05059       65.90974
H         36.57819       87.99408       64.69911
O         39.14379       88.09629       67.75538
H         39.93987       87.69186       68.18288
H         38.41674       87.97071       68.41593

Ca 1.0



