%chk=apoCaM-CA-Ng.loop4.water5.frame706.chk
%nprocshared=20
%mem=10GB
%nosave
#b3lyp/svp scf=(tight,noincore,xqc) Test 
#IOP(5/87=12) Density=Current Pop=(MK,readradii) iop(6/33=2) iop(6/42=6)

apoCaM-CA-Ng.loop4.water5.frame706 

   -3  1 
C        105.04350       68.34099       -0.72748
C        105.26442       66.95550       -0.19783
O        104.72485       66.00712       -0.74886
H        104.59592       68.97919        0.06072
H        106.01499       68.78106       -1.03684
H        104.36504       68.32496       -1.60253
N        106.07982       66.77180        0.87741
C        106.40415       65.47669        1.46670
C        107.09747       64.58932        0.45257
O        106.66829       63.47384        0.18820
C        105.17958       64.82525        2.12996
C        104.62475       65.71479        3.20678
O        103.35459       66.12149        3.10471
O        105.30408       66.05214        4.16284
H        106.52526       67.60297        1.29594
H        107.14686       65.64601        2.27806
H        105.47204       63.85820        2.59211
H        104.39238       64.61802        1.37198
N        108.22819       65.05883       -0.13807
C        109.06121       64.29081       -1.06645
C        109.66993       63.07017       -0.33161
O        109.50833       63.00946        0.88024
C        110.13007       65.24359       -1.70243
C        111.11333       65.80149       -0.63370
C        109.42542       66.35511       -2.51228
C        112.22164       66.67645       -1.21322
H        108.49386       66.02160        0.10493
H        108.40047       63.93911       -1.88229
H        110.72253       64.69662       -2.44497
H        111.60142       64.94555       -0.12088
H        110.58922       66.40181        0.13606
H        108.76030       65.89821       -3.27715
H        108.81286       67.02190       -1.87222
H        110.15871       66.97804       -3.06170
H        112.90336       66.98758       -0.39365
H        112.80364       66.11114       -1.97009
H        111.80611       67.59804       -1.66896
N        110.35860       62.03487       -0.92025
C        110.67317       61.86830       -2.33919
C        109.42708       61.73186       -3.21431
O        109.56015       61.79760       -4.42872
C        111.62133       60.66166       -2.53016
C        112.18792       60.58515       -3.92163
O        112.92505       61.60410       -4.40587
O        112.00040       59.59563       -4.61035
H        110.70310       61.30098       -0.27949
H        111.25380       62.74593       -2.65533
H        111.08731       59.72104       -2.27064
H        112.48637       60.76997       -1.83900
N        108.17985       61.59289       -2.67770
C        106.96884       61.67469       -3.47108
C        106.71705       60.49142       -4.36844
O        107.46163       59.52110       -4.36214
H        108.05848       61.52687       -1.65817
H        106.99354       62.61103       -4.06890
H        106.09742       61.73514       -2.78286
N        105.60470       60.52346       -5.15128
C        105.12899       59.42286       -5.97562
C        105.11695       59.77059       -7.46125
O        104.65321       58.94537       -8.23658
C        103.74461       58.97219       -5.43611
C        102.72423       60.07250       -5.27436
O        102.28879       60.67214       -6.23953
O        102.26725       60.38429       -4.04569
H        105.02771       61.37937       -5.12882
H        105.79669       58.53789       -5.88814
H        103.91552       58.54328       -4.42499
H        103.32188       58.16496       -6.07197
N        105.66081       60.92703       -7.95409
C        105.69680       61.22997       -9.38201
C        104.33107       61.52202       -9.97406
O        104.24558       61.73462      -11.17448
H        106.11132       61.59867       -7.31612
H        106.17373       60.38247       -9.91956
H        106.32023       62.13537       -9.54963
N        103.22734       61.60037       -9.18229
C        101.88774       61.95384       -9.62107
C        101.85977       63.37028      -10.16409
O        101.07733       63.67055      -11.05512
C        101.26860       60.89376      -10.55645
C        101.35998       59.48721       -9.93363
C        100.68827       58.41374      -10.75185
N        100.74769       57.12651      -10.33903
O        100.09090       58.69117      -11.78187
H        103.33357       61.46582       -8.17511
H        101.25396       61.97759       -8.70484
H        101.78951       60.89004      -11.53770
H        100.20023       61.15646      -10.72433
H        100.89594       59.49345       -8.92351
H        102.43138       59.21338       -9.83025
H        101.25500       56.87496       -9.47737
H        100.29379       56.37831      -10.88332
N        102.67953       64.30941       -9.60866
C        102.65065       65.72792       -9.93573
C        102.31139       66.56075       -8.70323
O        102.07562       67.75013       -8.86717
C        103.99418       66.18658      -10.56936
C        105.20583       65.92447       -9.65478
C        104.21202       65.51107      -11.92968
H        103.35382       64.00272       -8.89534
H        101.83796       65.92627      -10.66951
H        103.93392       67.28226      -10.75433
H        106.12985       66.32413      -10.12343
H        105.07434       66.42494       -8.67276
H        105.35940       64.83750       -9.48657
H        103.36867       65.74953      -12.61246
H        105.14818       65.88392      -12.39748
H        104.28382       64.40891      -11.82121
N        102.26617       66.02086       -7.44526
C        101.87062       66.76273       -6.25731
C        100.66362       66.05447       -5.63769
O        100.29251       64.98875       -6.11479
C        103.12175       66.90947       -5.35686
C        102.98516       67.88583       -4.21138
N        103.64070       69.07190       -4.23856
O        102.30322       67.60337       -3.24070
H        102.51609       65.03678       -7.28672
H        101.54871       67.78634       -6.54880
H        103.92086       67.30573       -6.02278
H        103.47553       65.92341       -4.98550
H        104.22822       69.33880       -5.04208
H        103.55086       69.73806       -3.45717
N         99.93065       66.63501       -4.65050
C         98.66165       66.07114       -4.17344
C         97.90975       67.06060       -3.29330
O         98.42541       68.14248       -3.04172
C         98.82412       64.69751       -3.45837
C         99.33374       64.74279       -2.03204
C        100.65123       65.11566       -1.72223
C         98.46750       64.36975       -0.98601
C        101.09140       65.10857       -0.39010
C         98.90479       64.36915        0.33692
C        100.21536       64.73039        0.64091
O        100.61754       64.69723        1.92511
H        100.23038       67.56441       -4.33419
H         98.02963       65.89901       -5.07289
H         99.44124       63.99216       -4.05008
H         97.81105       64.24288       -3.43864
H        101.33896       65.39027       -2.50805
H         97.44665       64.07350       -1.19054
H        102.11178       65.38731       -0.15981
H         98.22530       64.07632        1.12789
H        101.52494       64.89504        2.18046
N         96.69052       66.74962       -2.75851
C         96.01162       67.64917       -1.83795
C         96.00672       67.03178       -0.44927
O         95.25714       66.08873       -0.23689
C         94.57966       67.98602       -2.28491
C         94.54438       68.75761       -3.60760
C         93.13120       69.13456       -3.94924
O         92.81546       70.30977       -4.04714
O         92.20266       68.17805       -4.14159
H         96.26480       65.83096       -2.95102
H         96.54156       68.60577       -1.81520
H         94.11775       68.62833       -1.50112
H         93.98155       67.05195       -2.37226
H         94.96748       68.13895       -4.42702
H         95.15683       69.68160       -3.50735
N         96.83813       67.44621        0.55571
C         97.91513       68.42196        0.38591
C         97.44913       69.82632        0.05342
O         96.27293       70.13501        0.18743
C         98.84934       68.44615        1.60387
C         98.19249       68.88151        2.93339
C         99.25654       68.83262        3.98439
O         99.90485       67.66827        4.14503
O         99.62842       69.84292        4.55725
H         96.77043       66.94005        1.45160
H         98.53029       68.06238       -0.46791
H         99.69683       69.13244        1.38775
H         99.27083       67.42238        1.71741
H         97.37541       68.18831        3.22146
H         97.77878       69.90870        2.84588
N         98.34923       70.70711       -0.47130
C         98.01073       72.03981       -0.92141
H         96.93994       72.28072       -0.76185
H         98.63352       72.78074       -0.37959
H         98.22869       72.11894       -2.00864
H         99.32710       70.40517       -0.60350
Ca       102.11958       67.48277        4.39483
O        104.48334       68.07419        6.56243
H        104.88145       67.18556        6.74159
H        104.34467       68.46846        7.46000
O        102.60852       70.90205        4.04693
H        101.80327       71.47755        4.07266
H        103.09989       71.12445        4.87708
O        101.53920       69.13633        7.16287
H        101.57324       69.57308        6.27609
H        101.46230       69.88787        7.80226
O        102.36630       68.69341        1.57699
H        102.68700       69.62849        1.62944
H        102.00396       68.60675        0.65975
O        102.26369       64.83708        5.79208
H        102.03276       64.99161        6.74224
H        101.40180       64.91804        5.31083

Ca 1.0



