%chk=apoCaM-CA-Ng.loop2.water3.frame178.chk
%nprocshared=20
%mem=10GB
%nosave
#b3lyp/svp scf=(tight,noincore,xqc) Test 
#IOP(5/87=12) Density=Current Pop=(MK,readradii) iop(6/33=2) iop(6/42=6)

apoCaM-CA-Ng.loop2.water3.frame178 

   -2  1 
C         94.48864       53.90011       34.74375
C         95.92698       53.80573       34.32689
O         96.34422       52.74601       33.88097
H         93.82728       53.70049       33.87632
H         94.29095       53.14616       35.53570
H         94.25054       54.90371       35.15552
N         96.76102       54.87589       34.46713
C         98.18618       54.82253       34.14630
C         98.97276       53.93074       35.11185
O        100.17349       53.83288       34.92777
C         98.79558       56.24544       34.14049
C         98.19559       57.15701       33.09633
O         98.66149       58.41408       32.97426
O         97.31098       56.77273       32.34622
H         96.36400       55.76538       34.80814
H         98.31170       54.41436       33.11763
H         99.88192       56.17624       33.91296
H         98.67637       56.70853       35.14349
N         98.37595       53.25109       36.14058
C         99.02166       52.32771       37.07017
C         99.62176       51.11078       36.38305
O         99.01522       50.05658       36.46448
C        100.01342       53.02457       38.00333
H         97.36813       53.36651       36.29859
H         98.21032       51.94006       37.73108
H        100.86066       53.47316       37.44841
H         99.49287       53.82881       38.56419
H        100.41271       52.28940       38.73576
N        100.83220       51.15116       35.75619
C        101.47477       49.98540       35.15880
C        101.75173       50.17351       33.67743
O        102.44184       49.33517       33.11280
C        102.75878       49.63810       35.94728
C        103.85777       50.67206       35.93407
O        103.75496       51.71337       35.30546
O        104.98668       50.43022       36.62630
H        101.36078       52.02952       35.74789
H        100.82686       49.08629       35.24124
H        103.18120       48.69163       35.54395
H        102.46792       49.45023       37.00314
N        101.20794       51.20311       32.96023
C        101.43469       51.36703       31.53585
C        101.03682       50.11374       30.80784
O        101.88851       49.49956       30.18036
H        100.57922       51.87670       33.41531
H        102.51037       51.58302       31.35818
H        100.84087       52.22706       31.15304
N         99.75575       49.66148       30.86934
C         99.33111       48.41383       30.24788
C         98.53489       48.71473       29.00606
O         98.16888       49.86323       28.78643
C         98.53646       47.57645       31.26964
C         99.42768       47.13293       32.40468
N        100.37437       46.18960       32.20605
O         99.29381       47.61965       33.51431
H         99.04916       50.23513       31.35869
H        100.21327       47.83642       29.89598
H         98.08261       46.67326       30.80807
H         97.70224       48.20569       31.65693
H        100.49070       45.74865       31.28302
H        100.97342       45.88146       32.98627
N         98.31989       47.73077       28.08734
C         97.66850       47.98387       26.81472
C         96.43420       47.15054       26.65326
O         96.20603       46.22542       27.42269
H         98.67111       46.77884       28.27713
H         98.36636       47.78211       25.97479
H         97.36183       49.04904       26.74121
N         95.53288       47.49249       25.69151
C         94.24989       46.81664       25.52495
C         93.35375       46.92896       26.77023
O         92.30941       46.29735       26.78607
C         93.49950       47.34249       24.26881
C         93.03416       48.80669       24.39089
O         94.28092       47.15257       23.11195
H         95.77697       48.28191       25.07505
H         94.46565       45.73802       25.35344
H         92.57971       46.73348       24.13566
H         94.93341       47.89725       23.04029
H         93.88740       49.49845       24.54918
H         92.50259       49.10910       23.46461
H         92.32591       48.91424       25.23639
N         93.70598       47.69739       27.84821
C         92.93718       47.79464       29.08829
C         93.74214       47.15465       30.21413
O         94.82861       46.66135       29.94635
C         92.59347       49.29031       29.38907
C         93.85543       50.13551       29.73720
C         91.81241       49.89335       28.20840
C         93.54309       51.57927       30.13133
H         94.57649       48.23471       27.82375
H         91.98477       47.22816       29.00362
H         91.92219       49.30849       30.27470
H         94.57145       50.16049       28.89044
H         94.36796       49.67397       30.60693
H         92.46004       49.96348       27.31032
H         90.92805       49.26555       27.97014
H         91.43937       50.90856       28.44863
H         92.83351       51.60382       30.98488
H         94.48289       52.08726       30.43582
H         93.12037       52.14518       29.27676
N         93.29608       47.15816       31.50858
C         94.11260       46.63269       32.59862
C         93.34841       45.57765       33.40275
O         93.38718       45.58951       34.62121
C         94.63007       47.84043       33.41581
C         95.68079       47.49994       34.43113
O         96.91081       48.03069       34.37499
O         95.43144       46.74838       35.35375
H         92.39698       47.60446       31.73865
H         95.00773       46.11943       32.18627
H         93.77676       48.34719       33.91657
H         95.08848       48.56711       32.70983
N         92.62878       44.60792       32.77658
C         92.01750       43.48454       33.48936
C         91.16690       43.92462       34.69338
O         90.24733       44.70634       34.49697
C         91.13264       42.66788       32.52300
C         90.58681       41.43446       33.19983
C         91.44884       40.38248       33.55194
C         89.21897       41.33357       33.50394
C         90.95250       39.25279       34.20694
C         88.72699       40.20363       34.16393
C         89.59296       39.16460       34.51582
H         92.54577       44.64850       31.74892
H         92.85359       42.84373       33.82649
H         91.70225       42.35888       31.61991
H         90.30217       43.32684       32.18406
H         92.50615       40.44124       33.32398
H         88.53755       42.13542       33.24812
H         91.62358       38.44855       34.47900
H         87.67477       40.13603       34.40718
H         89.21106       38.29175       35.02860
N         91.38404       43.43669       35.96338
C         90.57597       43.77069       37.13375
C         90.51217       45.25389       37.40794
O         89.42550       45.78529       37.58826
C         91.29364       43.06508       38.29491
C         91.86130       41.85073       37.60927
C         92.39437       42.45551       36.31553
H         89.55729       43.34192       36.99702
H         92.17251       43.65966       38.63390
H         90.64879       42.86438       39.17730
H         92.61024       41.27792       38.19581
H         91.00928       41.17679       37.35750
H         93.36541       42.97933       36.46038
H         92.49869       41.62489       35.59627
N         91.66120       45.98547       37.42789
C         91.70999       47.42261       37.66683
C         90.79365       48.13213       36.68422
O         89.90439       48.84872       37.12144
C         93.15776       47.93950       37.52209
C         94.13528       47.36390       38.57721
C         95.53733       47.80165       38.26225
O         95.79557       48.98992       38.14935
O         96.49188       46.88888       37.98566
H         92.54046       45.48994       37.21870
H         91.36426       47.64391       38.70133
H         93.16378       49.04816       37.61153
H         93.50811       47.68380       36.50373
H         94.11952       46.25455       38.57313
H         93.84521       47.71601       39.58888
N         90.92164       47.92899       35.34273
C         90.03475       48.50524       34.35337
H         89.25649       49.15352       34.80745
H         90.62541       49.10655       33.63229
H         89.52488       47.68541       33.80327
H         91.66143       47.30574       34.99862
Ca        97.85715       47.62617       36.36567
O        100.84355       46.26374       35.89519
H        100.72894       45.29828       35.70849
H        101.77345       46.34373       36.22497
O         98.09099       44.55103       36.10934
H         97.21986       44.08846       36.02573
H         98.38970       44.35675       37.03336
O         99.54932       47.15936       38.65942
H        100.06368       47.88591       39.09196
H         99.72762       46.35740       39.21130

Ca 1.0



