%chk=apoCaM-CA-Ng.loop1.water4.frame123.chk
%nprocshared=20
%mem=10GB
%nosave
#b3lyp/svp scf=(tight,noincore,xqc) Test 
#IOP(5/87=12) Density=Current Pop=(MK,readradii) iop(6/33=2) iop(6/42=6)

apoCaM-CA-Ng.loop1.water4.frame123 

   0  1 
C         61.02066       33.20555       99.15955
C         60.33251       32.65103      100.37409
O         60.30707       33.32411      101.39418
H         62.08879       33.39770       99.39391
H         60.97232       32.49803       98.30463
H         60.53680       34.15731       98.85681
N         59.76004       31.41522      100.33716
C         59.09221       30.79554      101.47888
C         59.82615       29.54534      101.95860
O         59.33527       28.90679      102.87890
C         57.60842       30.51228      101.13434
C         57.35246       29.52016      100.02492
O         56.08153       29.24518       99.67532
O         58.26490       28.95730       99.44235
H         59.81389       30.88218       99.45647
H         59.07860       31.49385      102.34392
H         57.12943       31.47517      100.85210
H         57.09455       30.13701      102.04584
N         61.01750       29.15423      101.41099
C         61.76630       27.97424      101.82950
C         63.14097       28.36462      102.34435
O         63.84414       29.05415      101.61846
C         61.95225       27.01795      100.63878
C         60.66035       26.26283      100.32369
C         60.85219       25.32373       99.12781
C         59.67974       24.34596       98.95044
N         58.39532       25.02445       98.77560
H         61.43816       29.71506      100.65671
H         61.21975       27.42611      102.59933
H         62.70837       26.24618      100.90752
H         62.33236       27.57692       99.75465
H         59.84084       26.97852      100.11219
H         60.39297       25.66097      101.22078
H         61.76427       24.70574       99.28309
H         60.99746       25.93142       98.20776
H         59.62285       23.67631       99.83775
H         59.88815       23.71391       98.05914
H         58.44107       25.68924       97.97047
H         57.65992       24.30580       98.58696
H         58.12841       25.53301       99.64898
N         63.67063       27.92252      103.53031
C         63.04214       27.06574      104.53972
C         62.50383       25.75043      103.95391
O         61.31161       25.51008      104.06069
C         61.93306       27.83022      105.30129
C         62.37060       29.14445      105.87518
O         61.77148       30.16066      105.55839
O         63.33456       29.21940      106.81224
H         64.64402       28.20187      103.73285
H         63.81413       26.81209      105.29883
H         61.56777       27.19514      106.13710
H         61.06606       28.02982      104.64494
N         63.25940       24.83372      103.29420
C         64.69666       24.90917      103.12286
C         65.21203       23.82973      102.17475
O         64.41920       23.12975      101.55985
H         62.75073       24.02311      102.90886
H         65.16962       24.82354      104.12232
H         64.97320       25.88209      102.66874
N         66.54158       23.65643      101.93870
C         67.58132       24.34459      102.69304
C         67.70723       23.73356      104.08501
O         67.08166       22.71682      104.35769
C         68.93238       24.33231      101.93605
C         69.56265       22.97191      101.76489
O         69.01210       22.09981      101.11292
O         70.77422       22.72789      102.29875
H         66.80535       22.98276      101.20656
H         67.29867       25.41616      102.77792
H         69.64844       24.97608      102.48990
H         68.78645       24.79078      100.93341
N         68.51206       24.30375      105.02143
C         68.70717       23.73745      106.34623
C         67.42521       23.68771      107.15234
O         67.03714       22.61796      107.59932
H         69.02643       25.16512      104.78283
H         69.43536       24.36922      106.90099
H         69.14684       22.72046      106.25123
N         66.74400       24.83487      107.41378
C         65.56469       24.91042      108.27813
C         64.38109       24.13322      107.71089
O         64.07657       24.27809      106.53623
C         65.14442       26.38435      108.50363
C         66.24421       27.21007      109.18228
O         64.01518       26.41748      109.33917
H         67.11934       25.70390      107.00577
H         65.82347       24.50279      109.28156
H         64.91700       26.84589      107.51277
H         63.31328       26.94008      108.87310
H         66.50574       26.76697      110.16733
H         67.16226       27.27015      108.56503
H         65.87968       28.24599      109.34642
N         63.60664       23.36979      108.54106
C         62.39262       22.66331      108.11988
C         61.12593       23.27870      108.72676
O         60.05034       22.75602      108.46580
C         62.47959       21.14471      108.46329
C         62.58096       20.89384      109.99352
C         63.63751       20.48993      107.69112
C         62.42914       19.42245      110.38105
H         63.86016       23.33454      109.53908
H         62.26142       22.74726      107.01787
H         61.53731       20.67470      108.10073
H         61.76070       21.43790      110.50893
H         63.54758       21.26986      110.38901
H         63.64597       19.39117      107.83657
H         63.51698       20.67132      106.60163
H         64.61498       20.90344      108.01656
H         61.45008       19.03329      110.02844
H         63.24638       18.80245      109.96294
H         62.46512       19.33020      111.48732
N         61.15918       24.40428      109.49792
C         59.96538       25.06723      110.01694
C         59.57856       26.15821      109.04272
O         60.41736       26.98558      108.71487
C         60.23275       25.62576      111.43154
C         60.53772       24.50121      112.42394
O         59.10347       26.32543      111.89121
H         62.05591       24.88465      109.64085
H         59.11656       24.35060      110.09207
H         61.12195       26.30114      111.40614
H         59.26194       27.28985      111.71395
H         61.43513       23.92748      112.11023
H         60.72979       24.93040      113.43010
H         59.67298       23.80642      112.49536
N         58.32979       26.17760      108.49104
C         57.96572       27.04202      107.37319
C         56.83740       27.99694      107.73317
O         56.25730       27.89049      108.80537
C         57.53692       26.12562      106.18745
C         58.61765       25.09971      105.85068
O         57.27392       26.88410      105.03635
H         57.62847       25.49254      108.81471
H         58.83873       27.65928      107.06521
H         56.61679       25.57164      106.49560
H         56.61850       26.37198      104.49392
H         59.54881       25.63590      105.60835
H         58.81005       24.41964      106.70487
H         58.30156       24.47897      104.98552
N         56.45893       28.94380      106.82779
C         55.28653       29.80032      106.95349
C         55.62460       31.28248      106.82422
O         54.70137       32.08460      106.79019
C         54.27178       29.37291      105.86150
C         54.75472       29.61685      104.40997
C         53.76009       29.12245      103.34801
C         53.64716       27.58741      103.30670
N         52.73949       27.15739      102.24438
H         57.00492       29.02334      105.95989
H         54.78765       29.64229      107.93486
H         53.31777       29.92495      106.00943
H         54.06398       28.29518      106.02182
H         55.72649       29.12380      104.20932
H         54.89217       30.71047      104.26820
H         54.13132       29.46106      102.35560
H         52.76351       29.58291      103.52161
H         53.27163       27.19396      104.27386
H         54.65423       27.15251      103.11912
H         51.77868       27.52980      102.42265
H         53.08415       27.49387      101.31598
H         52.70069       26.11235      102.23096
N         56.91184       31.72771      106.72478
C         57.24162       33.12014      106.43214
C         56.77354       33.44303      105.02632
O         57.22130       32.80008      104.08549
C         58.76575       33.34316      106.52979
C         59.25503       33.31892      107.98925
C         60.75362       33.25025      108.04173
O         61.32878       32.23288      108.70883
O         61.44338       34.06035      107.44304
H         57.68619       31.05574      106.82261
H         56.74616       33.79656      107.16428
H         59.03914       34.33653      106.10798
H         59.27664       32.56098      105.92314
H         58.85799       32.42454      108.51640
H         58.88517       34.22656      108.51328
N         55.86077       34.42824      104.80919
C         55.38749       34.75438      103.48153
H         54.64913       35.58232      103.53509
H         56.23803       35.07601      102.84339
H         54.89647       33.86819      103.02539
H         55.48608       34.96300      105.60717
Ca        63.14849       31.15006      107.95466
O         64.11063       32.67001      105.36707
H         63.32270       33.22784      105.58620
H         63.74894       31.94232      104.80158
O         64.74758       33.66687      108.97541
H         64.49549       34.28563      108.24460
H         64.45627       34.12693      109.80237
O         62.05089       29.25908      110.17557
H         61.98931       28.98862      109.22587
H         62.31040       28.43322      110.65501
O         62.65767       31.80470      111.52958
H         62.24938       32.68048      111.31414
H         63.61876       31.91974      111.32144

Ca 1.0



