%chk=apoCaM-CA-Ng.loop4.water4.frame408.chk
%nprocshared=20
%mem=10GB
%nosave
#b3lyp/svp scf=(tight,noincore,xqc) Test 
#IOP(5/87=12) Density=Current Pop=(MK,readradii) iop(6/33=2) iop(6/42=6)

apoCaM-CA-Ng.loop4.water4.frame408 

   -3  1 
C        111.77778       86.38338       94.40364
C        113.24451       86.11089       94.53788
O        113.81705       85.51787       93.63769
H        111.23050       85.91962       95.24970
H        111.60474       87.48003       94.40716
H        111.38741       85.96628       93.44992
N        113.92592       86.55643       95.63294
C        115.36244       86.39383       95.84036
C        116.14974       86.99422       94.70015
O        116.96745       86.31861       94.11063
C        115.76218       84.94947       96.24777
C        115.23951       83.78605       95.43630
O        115.55290       83.54588       94.14400
O        114.50591       82.98531       95.99518
H        113.40464       87.09607       96.34101
H        115.65031       87.00839       96.72392
H        115.35780       84.81077       97.27668
H        116.86789       84.87876       96.33457
N        115.96625       88.30834       94.39055
C        116.66724       89.08158       93.36633
C        118.15632       89.15939       93.67992
O        118.58193       90.18448       94.19430
C        116.33217       88.62734       91.91345
C        116.93048       89.57993       90.83858
C        114.81217       88.48520       91.72019
C        116.43884       91.03183       90.90540
H        115.27330       88.82811       94.95211
H        116.26233       90.11010       93.48006
H        116.75949       87.61719       91.73624
H        116.67261       89.19299       89.83041
H        118.03791       89.58187       90.92007
H        114.40708       87.71193       92.40081
H        114.27923       89.43450       91.92703
H        114.58662       88.16095       90.68583
H        115.33741       91.09062       90.78667
H        116.73445       91.51899       91.85523
H        116.90073       91.61272       90.08093
N        119.00819       88.12479       93.41431
C        120.38532       88.08625       93.87595
C        121.38278       88.52050       92.80027
O        122.17441       89.39040       93.13856
C        120.68151       86.73365       94.55424
C        122.03063       86.72434       95.22337
O        122.30205       87.60536       96.20676
O        122.87701       85.90877       94.89579
H        118.66486       87.29804       92.91412
H        120.49807       88.82343       94.70573
H        120.59578       85.90584       93.82966
H        119.91919       86.55024       95.34316
N        121.44602       88.09426       91.49722
C        120.58265       87.16424       90.77965
C        120.93625       85.70993       91.00518
O        121.78705       85.42783       91.83543
H        122.15282       88.56397       90.90827
H        120.77492       87.33487       89.69946
H        119.51533       87.39998       90.93280
N        120.39851       84.70066       90.25218
C        119.45949       84.88568       89.14188
C        118.11414       85.42029       89.69391
O        117.38000       84.34624       90.20203
C        119.25969       83.52136       88.40608
C        120.54376       82.96463       87.86546
O        120.98889       81.76853       88.29747
O        121.18027       83.58002       87.02613
H        120.73422       83.74517       90.45260
H        119.89962       85.61785       88.43185
H        118.54703       83.59404       87.56803
H        118.84063       82.77375       89.11315
N        117.24204       86.19074       88.78615
C        117.41279       86.31041       87.33004
C        118.18237       87.53397       86.90841
O        118.72873       88.23999       87.74562
H        116.79453       87.01668       89.23842
H        116.39212       86.42062       86.90415
H        117.84918       85.41786       86.86423
N        118.20350       87.86717       85.58438
C        118.83688       89.06835       85.05586
C        117.80303       90.12283       84.66242
O        118.20827       91.23884       84.37674
C        119.87046       88.71515       83.95799
C        119.35213       87.89741       82.75793
C        118.36764       88.63985       81.90305
N        118.73445       89.77524       81.26748
O        117.23908       88.19716       81.75605
H        117.67931       87.26607       84.93022
H        119.41543       89.56374       85.86764
H        120.65570       88.09520       84.44285
H        120.36607       89.64381       83.60069
H        118.91208       86.94251       83.11302
H        120.21643       87.63096       82.11239
H        119.68792       90.15187       81.36214
H        118.07132       90.27233       80.66269
N        116.45666       89.87968       84.75552
C        115.45082       90.94424       84.75325
C        114.39536       90.82112       83.66345
O        113.55810       91.71676       83.60913
C        114.77503       91.01537       86.15883
C        115.78615       91.44252       87.23143
C        114.10310       89.69225       86.57807
H        116.12762       88.92973       84.95563
H        115.93353       91.93010       84.57288
H        113.98963       91.80321       86.13020
H        115.27466       91.54323       88.21120
H        116.60703       90.70078       87.33196
H        116.22447       92.42988       86.97167
H        113.36010       89.36794       85.82029
H        114.84852       88.88215       86.72155
H        113.57747       89.82204       87.54748
N        114.35826       89.81132       82.74695
C        113.37188       89.77943       81.66870
C        112.51845       88.52099       81.64915
O        111.68381       88.45260       80.75928
C        114.07767       89.91296       80.29731
C        114.81010       91.21855       80.11936
N        114.15649       92.40202       80.17635
O        116.00605       91.20720       79.88431
H        115.07202       89.06866       82.77767
H        112.65392       90.62368       81.75746
H        113.32425       89.86179       79.48094
H        114.78270       89.06276       80.16513
H        113.14295       92.44216       80.35183
H        114.66881       93.28529       80.03299
N        112.62854       87.48912       82.54953
C        111.85707       86.25956       82.34356
C        111.81404       85.30525       83.53759
O        112.83674       84.90009       84.06389
C        112.31484       85.53191       81.04459
C        113.81356       85.35112       80.88832
C        114.49285       86.10724       79.91390
C        114.54854       84.44054       81.66742
C        115.87101       85.97367       79.73831
C        115.93047       84.30947       81.49156
C        116.59650       85.07597       80.53058
O        117.92823       84.93785       80.37277
H        113.27099       87.55875       83.35049
H        110.79824       86.54875       82.16740
H        111.96580       86.15019       80.19347
H        111.78659       84.56447       80.91907
H        113.95663       86.81032       79.28855
H        114.06611       83.81515       82.39971
H        116.37209       86.56982       78.98607
H        116.48389       83.60593       82.10069
H        118.42308       85.44859       79.71599
N        110.58887       84.82873       83.92404
C        110.31194       83.72143       84.83649
C        110.57341       83.97919       86.30157
O        110.14594       83.14874       87.09451
C        110.94098       82.39827       84.34600
C        110.51089       82.03681       82.91185
C        109.01587       81.92220       82.77668
O        108.33460       81.02349       83.51279
O        108.41196       82.65294       82.00712
H        109.75433       85.19875       83.44504
H        109.20773       83.57754       84.81136
H        110.62574       81.57221       85.02129
H        112.04896       82.46067       84.38724
H        110.96822       81.06568       82.62869
H        110.88884       82.80747       82.20912
N        111.17329       85.10655       86.77193
C        111.12979       85.42725       88.19125
C        109.68611       85.69902       88.55271
O        109.15448       85.03856       89.43451
C        112.02150       86.63536       88.53404
C        113.52209       86.39628       88.28043
C        114.05834       85.22748       89.06247
O        113.78117       84.08401       88.73858
O        114.84892       85.43706       90.12819
H        111.57617       85.79394       86.12163
H        111.47947       84.56655       88.79698
H        111.89681       86.86329       89.61672
H        111.70028       87.52926       87.95742
H        114.05183       87.31401       88.60752
H        113.74547       86.25453       87.20135
N        108.97346       86.61775       87.84187
C        107.56150       86.86375       88.03858
H        107.13315       86.24455       88.85391
H        107.40324       87.93458       88.27728
H        107.02145       86.61980       87.09850
H        109.44163       87.14176       87.08693
Ca       116.67182       84.41015       92.36503
O        119.05437       82.66371       92.36264
H        118.53980       82.21096       91.64794
H        119.18977       81.96622       93.05124
O        115.89725       80.66637       92.48531
H        115.43442       80.20041       91.74423
H        115.18109       80.85636       93.14158
O        116.09147       81.84958       89.76608
H        115.79431       82.61302       89.21335
H        116.64521       81.30571       89.15286
O        113.19696       82.84529       92.29806
H        112.84216       82.84292       93.22274
H        113.04471       81.92307       91.97208

Ca 1.0



