%chk=apoCaM-CA-Ng.loop3.water7.frame117.chk
%nprocshared=20
%mem=10GB
%nosave
#b3lyp/svp scf=(tight,noincore,xqc) Test 
#IOP(5/87=12) Density=Current Pop=(MK,readradii) iop(6/33=2) iop(6/42=6)

apoCaM-CA-Ng.loop3.water7.frame117 

   0  1 
C         38.26198       93.81639       15.85059
C         38.82283       95.19362       16.02987
O         38.05390       96.14207       16.09101
H         37.15218       93.84825       15.79431
H         38.65415       93.37557       14.91063
H         38.55801       93.17883       16.70948
N         40.17372       95.37682       16.12226
C         40.81410       96.67750       16.30250
C         40.59945       97.60499       15.11129
O         40.91999       98.77785       15.24382
C         40.35081       97.36344       17.61661
C         40.63865       96.53306       18.83628
O         40.10302       95.44709       18.98864
O         41.47293       97.00061       19.78467
H         40.78522       94.54725       16.07678
H         41.91382       96.53241       16.39443
H         39.26926       97.60648       17.59073
H         40.89729       98.32615       17.72647
N         40.10360       97.16423       13.91096
C         39.81370       98.07904       12.80644
C         38.33587       98.03020       12.40761
O         37.91823       98.84874       11.59935
C         40.75791       97.78759       11.61869
C         40.94230       99.03484       10.73097
C         41.93881       98.83909        9.58120
C         41.37717       97.96366        8.45377
N         42.32047       97.89208        7.33781
H         39.94312       96.15793       13.76587
H         40.01355       99.11561       13.14990
H         40.40368       96.89470       11.05911
H         41.76761       97.55619       12.02453
H         41.36044       99.83324       11.38407
H         39.97987       99.40093       10.32043
H         42.89555       98.42270        9.96790
H         42.15087       99.84271        9.15240
H         40.42547       98.41265        8.09045
H         41.16420       96.93872        8.82492
H         41.89822       97.32613        6.56701
H         42.52296       98.85254        6.97462
H         43.21058       97.43915        7.64760
N         37.47555       97.11241       12.94384
C         36.04084       97.07766       12.66838
C         35.38584       98.35295       13.20580
O         36.02839       99.09743       13.93494
C         35.47829       95.76972       13.29373
C         34.00625       95.51599       13.18068
O         33.58375       94.51836       12.62037
O         33.18327       96.28518       13.90184
H         37.84116       96.39802       13.58269
H         35.89673       97.03102       11.56644
H         35.71300       95.75883       14.38203
H         36.01859       94.91511       12.82911
N         34.12128       98.70141       12.83569
C         33.47990       99.93442       13.27007
C         33.28791       99.96992       14.76765
O         33.79701      100.87720       15.41042
H         33.60496       98.09443       12.18245
H         32.48383      100.02019       12.78795
H         34.09103      100.80310       12.93811
N         32.56987       98.99383       15.38892
C         32.35180       98.93157       16.82682
C         33.21183       97.84239       17.46257
O         34.00020       98.17294       18.33807
C         30.83267       98.87946       17.16721
C         29.88651       97.93139       16.38529
N         28.50869       98.14848       16.81574
O         30.18082       96.58029       16.53818
H         32.17571       98.24423       14.81090
H         32.71023       99.86989       17.30904
H         30.44616       99.89549       16.93174
H         30.70972       98.73056       18.26196
H         28.19981       99.09533       16.50176
H         27.88944       97.44088       16.35830
N         33.14286       96.54166       17.07913
C         33.92117       95.46675       17.67427
C         32.99931       94.47459       18.33756
O         31.79392       94.69294       18.35289
H         32.50465       96.28009       16.33423
H         34.63104       95.84467       18.44008
H         34.50822       94.96329       16.87580
N         33.49768       93.35641       18.93903
C         32.62124       92.42239       19.64342
C         31.64135       91.76106       18.69289
O         31.76847       91.91627       17.48770
C         33.41574       91.32162       20.37901
C         34.47359       91.86414       21.30812
C         35.81037       91.46160       21.14968
C         34.14486       92.75940       22.34060
C         36.80113       91.94448       22.00673
C         35.14065       93.24935       23.19149
C         36.47270       92.84092       23.02767
O         37.44261       93.30022       23.84330
H         34.51732       93.19992       18.92940
H         32.04693       93.00942       20.39368
H         33.88459       90.65127       19.62434
H         32.71323       90.70729       20.98182
H         36.08717       90.76634       20.36666
H         33.12249       93.08363       22.48600
H         37.82554       91.61957       21.87583
H         34.87554       93.94411       23.97830
H         37.25919       93.92241       24.56126
N         30.62096       91.00657       19.18339
C         29.63950       90.34382       18.33616
C         28.29932       91.01571       18.57706
O         27.73972       91.55980       17.63582
C         29.62499       88.81264       18.61520
C         31.04691       88.18250       18.59250
C         28.69666       88.07449       17.63224
C         31.79434       88.28552       17.25863
H         30.52195       90.91731       20.20574
H         29.89701       90.48102       17.26181
H         29.23572       88.64985       19.64429
H         30.96619       87.10676       18.86168
H         31.67150       88.66411       19.37530
H         27.66237       88.45403       17.69295
H         29.03212       88.20775       16.58319
H         28.67465       86.98912       17.86739
H         31.25484       87.75149       16.45117
H         31.94579       89.34172       16.96303
H         32.79479       87.81555       17.36592
N         27.76023       91.08716       19.83221
C         26.54785       91.85225       20.12334
C         25.29407       91.25871       19.49616
O         24.27007       91.92729       19.51956
C         26.35116       92.00464       21.63865
O         27.47139       92.63842       22.19414
H         28.27308       90.65437       20.61479
H         26.69159       92.87439       19.70424
H         26.21875       91.00054       22.09972
H         25.44725       92.62787       21.82661
H         27.25687       92.79466       23.15008
N         25.29757       90.03256       18.89561
C         24.16948       89.46649       18.16676
C         23.79323       90.39410       17.02487
O         22.64268       90.79009       16.89672
C         23.00183       89.14260       19.10997
H         26.15680       89.47286       18.90852
H         24.50310       88.50373       17.71851
H         22.59814       90.05593       19.59248
H         22.18222       88.64989       18.54520
H         23.34646       88.44543       19.90339
N         24.77449       90.82408       16.18466
C         24.57663       91.77756       15.10564
C         25.14578       91.20662       13.82773
O         26.30740       90.82238       13.81786
C         25.29079       93.08223       15.45555
H         25.73771       90.49692       16.35574
H         23.50004       92.02563       14.97502
H         26.37445       92.90606       15.60802
H         25.15196       93.82548       14.64090
H         24.86378       93.50355       16.39118
N         24.38211       91.13018       12.70234
C         24.84318       90.57160       11.43652
C         25.13754       89.09306       11.61183
O         26.24571       88.64556       11.34525
C         26.05372       91.35459       10.85570
C         25.81550       92.86684       10.72843
C         24.65588       93.19958        9.83655
O         24.65970       92.85514        8.66561
O         23.61065       93.89452       10.32434
H         23.41287       91.48106       12.73711
H         24.01051       90.65109       10.70301
H         26.30302       90.93889        9.85437
H         26.94952       91.21519       11.49630
H         26.73044       93.33488       10.30659
H         25.64537       93.29899       11.73831
N         24.16173       88.26815       12.07892
C         24.38072       86.85411       12.28594
H         25.19843       86.70138       13.02230
H         23.45539       86.38294       12.68012
H         24.64888       86.36695       11.32477
H         23.23335       88.65793       12.30326
Ca        31.04481       95.93195       14.51408
O         28.55505       94.34354       15.37971
H         27.82299       95.00724       15.31669
H         28.68160       94.20219       16.35152
O         29.78743       92.76818       13.02779
H         28.81359       92.61268       13.11790
H         30.20158       92.09276       13.62149
O         30.85607       97.77929       11.99724
H         30.76923       98.09405       11.06275
H         30.54864       98.54317       12.54695
O         28.08267       97.55029       13.56408
H         27.47259       97.43550       12.79401
H         27.65382       98.25767       14.10653
O         28.43074       95.20315       11.47955
H         28.31185       95.76676       10.67405
H         27.52632       95.14337       11.87742
O         31.22797       94.92659       10.54617
H         32.21369       94.99682       10.57299
H         30.96790       95.48256        9.76984
O         32.39403       93.48674       15.26471
H         31.42595       93.49193       15.47416
H         32.52897       92.65978       14.73902

Ca 1.0



