%chk=apoCaM-CA-Ng.loop1.water3.frame1230.chk
%nprocshared=20
%mem=10GB
%nosave
#b3lyp/svp scf=(tight,noincore,xqc) Test 
#IOP(5/87=12) Density=Current Pop=(MK,readradii) iop(6/33=2) iop(6/42=6)

apoCaM-CA-Ng.loop1.water3.frame1230 

   0  1 
C         72.74365       16.81529       25.63857
C         71.31243       16.37511       25.56563
O         70.71125       16.51007       24.50924
H         73.17655       16.62215       26.64236
H         73.33978       16.26641       24.88078
H         72.80477       17.90510       25.43225
N         70.68693       15.86839       26.66599
C         69.28658       15.47221       26.67429
C         68.52292       16.47763       27.50194
O         67.92674       16.13499       28.51490
C         69.11897       14.02726       27.18776
C         69.80835       13.02594       26.30308
O         69.15994       12.15942       25.73811
O         71.14525       13.06262       26.14567
H         71.20812       15.80736       27.55443
H         68.85222       15.51913       25.65616
H         68.03135       13.78847       27.21473
H         69.51995       13.93617       28.22028
N         68.50196       17.77521       27.08843
C         67.78290       18.82616       27.79281
C         66.29827       18.48300       27.85331
O         65.78261       18.43361       28.96099
C         68.06139       20.23824       27.21134
C         69.57422       20.54503       27.19219
C         69.88021       21.99014       26.78814
C         71.40091       22.20336       26.70453
N         71.72686       23.59242       26.38813
H         69.01227       18.00944       26.22534
H         68.17448       18.86865       28.83586
H         67.55249       20.97738       27.86877
H         67.65746       20.36995       26.18920
H         70.08261       19.87241       26.47099
H         70.00298       20.36622       28.20262
H         69.44440       22.67695       27.54612
H         69.42755       22.21285       25.79724
H         71.82142       21.53863       25.91592
H         71.87385       21.93305       27.67496
H         71.29368       23.86873       25.47750
H         71.38399       24.22041       27.15091
H         72.76564       23.68919       26.31357
N         65.53929       18.12489       26.76913
C         65.98486       18.06898       25.37510
C         66.21225       16.62213       24.93854
O         65.94747       15.71339       25.71384
C         64.95047       18.79376       24.47676
C         63.63623       18.05738       24.47840
O         63.63710       16.77957       24.06506
O         62.61985       18.57824       24.89756
H         64.57732       17.80508       26.96602
H         66.95446       18.57390       25.25596
H         65.32040       18.83922       23.43102
H         64.81472       19.83664       24.84008
N         66.74630       16.33630       23.71441
C         67.06811       14.97412       23.30521
C         65.88280       14.19580       22.77752
O         64.83163       14.76488       22.53619
H         67.04021       17.11424       23.10490
H         67.53355       14.43583       24.15602
H         67.81627       14.99929       22.48491
N         66.01064       12.85106       22.57710
C         64.97101       11.99003       22.00305
C         65.58704       11.08845       20.92097
O         66.80429       11.05508       20.81761
C         64.32722       11.18007       23.15813
C         63.56776       12.13230       24.03497
O         62.54364       12.83589       23.50559
O         63.93553       12.34730       25.17783
H         66.88619       12.40481       22.89061
H         64.19337       12.61723       21.52275
H         65.12491       10.65377       23.72770
H         63.60908       10.41698       22.82731
N         64.85362       10.32146       20.05211
C         63.40522       10.30615       19.94936
C         62.85162       11.61531       19.44630
O         63.60656       12.47682       19.01176
H         65.36869        9.71476       19.39441
H         62.95063       10.03573       20.91262
H         63.08534        9.52135       19.22997
N         61.50966       11.83004       19.49355
C         60.87183       13.05663       19.02495
C         61.48238       14.28362       19.68315
O         61.85534       14.22132       20.84464
C         59.33935       13.00072       19.26519
C         58.60598       14.18735       18.63047
O         59.05017       12.97953       20.64069
H         60.92092       11.07987       19.88835
H         61.04506       13.12064       17.92745
H         58.93023       12.08630       18.77415
H         59.14723       12.04381       20.95381
H         58.92151       15.14782       19.08922
H         58.80536       14.22317       17.53819
H         57.51169       14.07819       18.78433
N         61.59529       15.43965       18.96604
C         62.16003       16.69715       19.44433
C         61.40679       17.21373       20.65741
O         61.55769       16.66174       21.73754
C         63.69544       16.59256       19.70484
C         64.41949       16.14856       18.40650
C         64.25435       17.93681       20.22322
C         65.92993       15.95894       18.56417
H         61.24122       15.44006       17.99731
H         62.02769       17.43813       18.62342
H         63.87480       15.82800       20.48625
H         64.23687       16.89155       17.59947
H         64.00338       15.17242       18.07790
H         65.33144       17.85846       20.47113
H         64.10877       18.73917       19.46926
H         63.75388       18.23962       21.16601
H         66.14725       15.21530       19.35966
H         66.35367       15.59167       17.60564
H         66.43719       16.91620       18.80002
N         60.62269       18.32279       20.55581
C         60.00225       18.96501       21.70745
C         58.48348       18.99617       21.64568
O         57.90861       19.49859       22.60006
C         60.58844       20.38854       21.88967
C         60.34748       21.31488       20.69281
O         61.97317       20.30021       22.10771
H         60.50001       18.75452       19.62826
H         60.24133       18.40379       22.63872
H         60.09748       20.86865       22.77085
H         62.11370       20.28702       23.08920
H         60.75849       22.32124       20.91863
H         60.86490       20.94189       19.78496
H         59.26273       21.41444       20.48156
N         57.75151       18.48457       20.60555
C         56.28587       18.49982       20.63483
C         55.80724       17.64913       21.80750
O         55.90259       16.43358       21.74016
C         55.66572       18.02519       19.29335
C         55.97738       19.00968       18.15523
O         56.14758       16.74526       18.96812
H         58.23595       18.07927       19.79281
H         55.95791       19.55194       20.79432
H         54.55855       17.98780       19.41908
H         55.63008       16.42857       18.18209
H         55.56959       20.01448       18.39682
H         57.06999       19.09556       17.98230
H         55.49900       18.66460       17.21348
N         55.38590       18.25899       22.95809
C         55.07071       17.59950       24.22633
C         56.21450       16.74217       24.74470
O         56.55543       15.74569       24.12460
C         53.78873       16.76055       24.18936
C         52.54345       17.61224       23.92578
C         51.28377       16.77573       24.17001
C         50.01105       17.59229       23.93279
N         48.82447       16.79158       24.23207
H         55.35765       19.29021       22.97098
H         54.88914       18.40511       24.97399
H         53.67762       16.30986       25.20251
H         53.86325       15.93522       23.44896
H         52.56871       18.00398       22.88588
H         52.52645       18.47218       24.63261
H         51.28866       16.42465       25.22688
H         51.28633       15.88889       23.50017
H         49.97975       17.92397       22.87163
H         50.01538       18.49401       24.58565
H         47.96881       17.35918       24.03739
H         48.80815       15.93315       23.63478
H         48.82487       16.51644       25.24174
N         56.82955       17.05886       25.91742
C         57.87630       16.23277       26.50862
C         59.25395       16.77599       26.17194
O         59.99541       16.03426       25.54507
C         57.67767       16.01927       28.02419
C         56.32045       15.38145       28.34916
C         56.17852       15.16003       29.82808
O         55.19150       15.77138       30.51039
O         56.95303       14.42336       30.41829
H         56.52007       17.90609       26.40889
H         57.82894       15.21060       26.06465
H         57.75992       16.97055       28.58240
H         58.48773       15.34689       28.38612
H         56.22148       14.40563       27.82668
H         55.50438       16.05249       28.00400
N         59.72539       18.01508       26.50028
C         59.03597       19.07234       27.20642
H         58.02139       18.81995       27.52627
H         59.61610       19.33854       28.11308
H         58.97451       19.96301       26.54618
H         60.68200       18.24387       26.20867
Ca        62.29220       14.97981       24.13899
O         63.23800       14.65863       27.24808
H         63.23060       13.69025       27.45300
H         63.71636       14.72176       26.38509
O         59.65518       12.94329       24.89703
H         59.76356       13.19810       25.84754
H         60.12161       12.07381       24.81709
O         59.29436       15.29418       22.67112
H         58.67418       14.58155       22.96358
H         59.04677       15.46879       21.72868

Ca 1.0



