%chk=apoCaM-CA-Ng.loop1.water3.frame1073.chk
%nprocshared=20
%mem=10GB
%nosave
#b3lyp/svp scf=(tight,noincore,xqc) Test 
#IOP(5/87=12) Density=Current Pop=(MK,readradii) iop(6/33=2) iop(6/42=6)

apoCaM-CA-Ng.loop1.water3.frame1073 

   0  1 
C         35.21427       50.55429       -7.06976
C         35.00339       49.27928       -6.30879
O         34.00176       49.17017       -5.61837
H         35.28415       51.40272       -6.35605
H         36.14841       50.52067       -7.66855
H         34.35760       50.72385       -7.75429
N         35.92778       48.27938       -6.36192
C         35.81373       47.03548       -5.61139
C         36.87029       47.05090       -4.53160
O         37.76145       46.21221       -4.51212
C         35.94148       45.82619       -6.55748
C         34.83938       45.80772       -7.57781
O         35.10389       45.84910       -8.76859
O         33.55367       45.73306       -7.18305
H         36.78195       48.42188       -6.92327
H         34.83478       46.95936       -5.09033
H         35.88097       44.88621       -5.96659
H         36.92962       45.85464       -7.06883
N         36.80275       48.02399       -3.58155
C         37.77673       48.19845       -2.51807
C         37.22573       47.82581       -1.13503
O         37.94983       47.10955       -0.45587
C         38.49242       49.57029       -2.62489
C         37.61084       50.81527       -2.44676
C         38.36107       52.14401       -2.64735
C         38.85992       52.34707       -4.09050
N         39.44031       53.67871       -4.26158
H         36.02446       48.68886       -3.64677
H         38.61772       47.48470       -2.68079
H         38.95072       49.59768       -3.63535
H         39.31591       49.60888       -1.87797
H         37.21208       50.81027       -1.41035
H         36.77222       50.79921       -3.17326
H         39.21109       52.21636       -1.93456
H         37.64396       52.96170       -2.41533
H         38.00653       52.23448       -4.79627
H         39.62871       51.58752       -4.34525
H         38.71835       54.41166       -4.07210
H         40.25183       53.80560       -3.61448
H         39.77224       53.78318       -5.24784
N         36.00728       48.16524       -0.59874
C         34.91995       48.92736       -1.21293
C         33.98500       48.03208       -2.03170
O         34.18908       46.82842       -2.09882
C         34.14958       49.70650       -0.11474
C         33.41376       48.78623        0.81673
O         32.45290       47.98669        0.32421
O         33.69706       48.74500        1.99951
H         35.81875       47.78809        0.34386
H         35.33063       49.70045       -1.87067
H         33.40824       50.39471       -0.57133
H         34.87457       50.32947        0.45550
N         32.93254       48.58811       -2.69790
C         31.99922       47.85491       -3.54321
C         31.03719       46.93583       -2.81055
O         31.11437       46.78581       -1.60300
H         32.81492       49.61123       -2.65609
H         32.55475       47.28368       -4.31593
H         31.36558       48.60488       -4.06472
N         30.04132       46.33642       -3.52670
C         28.98255       45.47044       -2.97591
C         27.84296       45.29284       -3.99719
O         28.02929       45.64805       -5.15395
C         29.55850       44.06605       -2.64617
C         30.49470       44.04337       -1.47993
O         31.64871       43.67482       -1.62388
O         30.04784       44.38226       -0.25631
H         30.01912       46.58017       -4.52789
H         28.53743       45.97342       -2.09154
H         30.06343       43.67000       -3.55520
H         28.76509       43.34698       -2.39378
N         26.62045       44.74897       -3.70397
C         26.11296       44.34475       -2.39943
C         25.83868       45.52932       -1.51315
O         25.07835       46.39525       -1.92234
H         25.96231       44.62993       -4.49074
H         26.75423       43.59334       -1.91353
H         25.12695       43.85330       -2.55203
N         26.39168       45.61762       -0.26809
C         26.10553       46.71890        0.64971
C         27.36306       47.54517        0.85823
O         28.44323       47.06922        0.54381
C         25.49375       46.15425        1.95408
C         24.98310       47.24157        2.90088
O         26.43881       45.35213        2.61345
H         27.03874       44.87663        0.04228
H         25.35540       47.39499        0.18474
H         24.61656       45.53258        1.65512
H         25.93579       44.74282        3.21468
H         24.51704       46.77325        3.79424
H         25.81479       47.88519        3.24020
H         24.21685       47.86470        2.39324
N         27.26574       48.85535        1.24291
C         28.37847       49.80561        1.25050
C         29.38611       49.47066        2.34619
O         29.91912       48.37374        2.36399
C         29.02904       49.91765       -0.16960
C         27.93224       50.16583       -1.24673
C         30.08464       51.03911       -0.18748
C         28.45186       50.13635       -2.68446
H         26.33005       49.23944        1.44095
H         27.95024       50.80889        1.47692
H         29.54521       48.96707       -0.41544
H         27.41820       51.13303       -1.05564
H         27.16913       49.36106       -1.19327
H         30.87130       50.85097        0.57172
H         30.59635       51.09293       -1.16900
H         29.61012       52.02144        0.02521
H         28.93891       49.16055       -2.89434
H         27.59666       50.25690       -3.38358
H         29.16538       50.96019       -2.87989
N         29.71959       50.39899        3.28916
C         30.70161       50.14701        4.34847
C         30.18745       49.20736        5.44761
O         30.93501       48.93969        6.37646
C         31.16182       51.48738        4.99370
C         30.05966       52.19692        5.79567
O         31.63127       52.36280        4.00016
H         29.30899       51.34021        3.19943
H         31.60752       49.70061        3.87968
H         31.98621       51.28050        5.71667
H         32.53045       52.04004        3.73041
H         29.19309       52.46315        5.15774
H         29.70433       51.55637        6.63020
H         30.46578       53.13143        6.23763
N         28.90784       48.73128        5.44607
C         28.30192       48.00733        6.56592
C         29.05937       46.72753        6.90709
O         29.04899       45.80154        6.11117
C         26.80492       47.74819        6.22468
C         26.04556       46.90011        7.23647
O         26.14098       48.98400        6.11467
H         28.30525       48.95872        4.64610
H         28.33720       48.67251        7.45652
H         26.75078       47.18269        5.26382
H         26.06056       49.20399        5.15113
H         26.44283       45.87311        7.23173
H         26.10055       47.34339        8.25182
H         24.98172       46.82053        6.92600
N         29.74688       46.62597        8.09419
C         30.50277       45.45030        8.53805
C         31.32682       44.84659        7.41885
O         31.02669       43.76107        6.94188
C         29.65064       44.46290        9.36607
C         28.38645       43.93991        8.68163
C         27.55801       43.01780        9.59042
C         28.24178       41.66973        9.86453
N         27.40310       40.82685       10.71554
H         29.77530       47.45041        8.71284
H         31.24775       45.78470        9.29660
H         29.32604       44.99302       10.29025
H         30.31051       43.62526        9.67281
H         28.61624       43.42445        7.72665
H         27.76160       44.81924        8.47665
H         26.58921       42.81735        9.08319
H         27.34078       43.53913       10.54933
H         29.21836       41.81978       10.36987
H         28.42222       41.15151        8.89654
H         27.26421       41.28564       11.64541
H         26.47557       40.66153       10.26150
H         27.87861       39.90707       10.86031
N         32.41639       45.52766        6.97261
C         33.23198       45.11309        5.83860
C         33.33199       46.25731        4.84237
O         32.87032       46.05329        3.73239
C         34.61490       44.55975        6.24644
C         34.48567       43.26875        7.06742
C         35.83962       42.70156        7.38442
O         36.15017       41.59087        6.98386
O         36.71687       43.41394        8.11699
H         32.65155       46.39503        7.46879
H         32.73265       44.26662        5.31155
H         35.21832       45.28905        6.81274
H         35.17173       44.31328        5.31419
H         33.90331       42.52060        6.48362
H         33.94851       43.46953        8.01817
N         33.87880       47.48911        5.08826
C         34.49496       47.97247        6.30732
H         35.53704       48.28221        6.08492
H         33.93210       48.85768        6.67047
H         34.53736       47.24480        7.12496
H         33.85595       48.17621        4.32462
Ca        31.44992       46.29370        1.41274
O         31.55994       43.21094        2.59842
H         31.45312       42.73356        1.73761
H         32.53181       43.38728        2.66571
O         33.91214       44.54069        0.29548
H         34.08946       44.23632       -0.62968
H         33.81496       45.52229        0.21745
O         29.26217       45.61445        3.29736
H         29.13581       44.82725        2.71103
H         30.13937       45.46266        3.73024

Ca 1.0



