%chk=apoCaM-CA-Ng.loop1.water3.frame965.chk
%nprocshared=20
%mem=10GB
%nosave
#b3lyp/svp scf=(tight,noincore,xqc) Test 
#IOP(5/87=12) Density=Current Pop=(MK,readradii) iop(6/33=2) iop(6/42=6)

apoCaM-CA-Ng.loop1.water3.frame965 

   0  1 
C         50.21089      109.40053       16.57109
C         49.63025      108.06774       16.93517
O         48.43960      108.00739       17.20737
H         51.29673      109.32670       16.35363
H         49.69019      109.80091       15.67717
H         50.06902      110.10269       17.42030
N         50.41962      106.95640       16.99277
C         49.91861      105.65038       17.40447
C         50.38106      105.30438       18.80792
O         51.15933      106.04768       19.38832
C         50.16807      104.58316       16.31594
C         51.56748      104.25374       15.82913
O         52.72200      104.78312       16.29523
O         51.65447      103.43957       14.92323
H         51.41834      107.05647       16.77553
H         48.81330      105.70298       17.51205
H         49.60703      104.92500       15.41792
H         49.70295      103.63017       16.64728
N         49.81943      104.25050       19.46817
C         50.04200      103.98508       20.88420
C         50.66883      102.61871       21.04780
O         50.06557      101.71737       21.61429
C         48.70623      104.16672       21.64411
C         48.88229      104.09216       23.17299
C         47.56348      104.36495       23.90744
C         47.75445      104.27729       25.42939
N         46.50320      104.54830       26.13542
H         49.14271      103.65185       18.97002
H         50.74995      104.72384       21.32148
H         47.96126      103.41626       21.29964
H         48.31457      105.17993       21.40156
H         49.62905      104.85449       23.48497
H         49.25476      103.09062       23.47078
H         46.80324      103.61767       23.59189
H         47.19913      105.38171       23.64219
H         48.51873      105.01772       25.75339
H         48.11321      103.25862       25.69920
H         45.77223      103.85550       25.85386
H         46.66801      104.46691       27.16499
H         46.17418      105.51788       25.92202
N         51.93348      102.42410       20.58914
C         52.67789      101.18273       20.76674
C         53.86643      101.43765       21.68634
O         54.18867      102.59607       21.91212
C         53.11640      100.66079       19.37800
C         53.97528      101.64698       18.62165
O         53.59005      102.10275       17.55702
O         55.17305      102.02629       19.10775
H         52.41091      103.21942       20.13612
H         52.03066      100.42014       21.24399
H         52.19921      100.45298       18.78388
H         53.67744       99.71248       19.46421
N         54.60126      100.44898       22.26971
C         54.29952       99.02633       22.28043
C         53.16337       98.69250       23.22541
O         52.38967       99.56320       23.59127
H         55.43423      100.73670       22.80660
H         55.19116       98.52964       22.72207
H         54.16921       98.58654       21.27427
N         53.07070       97.43108       23.73274
C         52.11555       97.03618       24.76656
C         52.33709       97.86024       26.03082
O         53.43844       97.84896       26.56497
C         52.30464       95.53124       25.08572
C         51.34490       94.97057       26.10690
O         51.43470       93.79625       26.42722
O         50.38836       95.73323       26.67088
H         53.74900       96.72943       23.39619
H         51.08160       97.18035       24.38120
H         53.34151       95.36635       25.45453
H         52.17482       94.94821       24.14819
N         51.31173       98.56727       26.59004
C         51.43882       99.28888       27.84802
C         52.28281      100.54924       27.77908
O         52.45498      101.17362       28.81314
H         50.37943       98.52745       26.15011
H         51.84636       98.59884       28.61848
H         50.42698       99.60624       28.18352
N         52.79171      101.01562       26.60232
C         53.53099      102.26937       26.47212
C         54.91433      101.99027       25.88615
O         55.21568      100.85134       25.56733
C         52.70175      103.22736       25.56798
C         51.30095      103.46464       26.14049
O         53.33457      104.47428       25.44780
H         52.60858      100.49872       25.74060
H         53.67149      102.74903       27.46464
H         52.60158      102.75344       24.56148
H         53.05371      104.86356       24.57844
H         50.72320      102.51856       26.19656
H         51.36627      103.91472       27.15389
H         50.75149      104.16306       25.48060
N         55.80582      103.00944       25.70176
C         57.09960      102.82592       25.04371
C         58.13124      102.11611       25.91448
O         59.21277      101.85450       25.40001
C         57.63663      104.16560       24.44573
C         57.92779      105.24478       25.52232
C         56.65860      104.66854       23.36290
C         58.57388      106.50859       24.94770
H         55.52252      103.95502       25.96968
H         56.93973      102.16555       24.16241
H         58.59401      103.93395       23.92682
H         58.63064      104.82257       26.27139
H         57.00111      105.54865       26.05020
H         57.06202      105.54576       22.82078
H         56.49835      103.87774       22.59909
H         55.67574      104.93962       23.80089
H         58.79829      107.21697       25.77221
H         59.52109      106.25589       24.42629
H         57.89344      107.02905       24.24323
N         57.87720      101.71792       27.19719
C         58.81207      100.90900       27.97508
C         59.12996      101.55587       29.30727
O         58.21701      101.81753       30.08096
C         58.21903       99.50455       28.22232
C         57.96067       98.76615       26.90622
O         59.12643       98.75155       28.98778
H         56.96303      101.92607       27.62680
H         59.76394      100.75522       27.41911
H         57.25470       99.62034       28.77346
H         58.59523       98.10021       29.51562
H         57.23162       99.31751       26.28000
H         58.90878       98.65028       26.33801
H         57.54567       97.75861       27.11715
N         60.42696      101.77402       29.66283
C         60.84409      102.24114       30.98089
C         62.34696      102.47907       30.98002
O         62.76484      103.59509       31.25376
C         60.43004      101.22399       32.09702
C         60.84172      101.68885       33.49699
O         60.98801       99.95515       31.87142
H         61.15922      101.56359       28.96565
H         60.34149      103.21219       31.19455
H         59.32185      101.13206       32.13396
H         60.40263       99.48970       31.22003
H         60.49659      100.94869       34.25156
H         61.94595      101.77391       33.58048
H         60.37966      102.67058       33.73117
N         63.21452      101.46311       30.69475
C         64.66162      101.59990       30.75221
C         65.29677      101.19659       29.43383
O         65.06823      100.08862       28.96821
C         65.21853      100.77432       31.93645
C         65.04611       99.24758       31.82974
C         65.51864       98.55813       33.11330
C         65.42348       97.03231       32.98613
N         65.81695       96.38064       34.23441
H         62.83449      100.53689       30.45836
H         64.94247      102.65138       30.98025
H         64.70729      101.13331       32.85707
H         66.30437      100.99302       32.04395
H         65.64962       98.86410       30.98086
H         63.97962       98.98649       31.66695
H         64.88225       98.90046       33.95876
H         66.57466       98.83655       33.32373
H         66.09185       96.68993       32.16414
H         64.38006       96.73849       32.73512
H         66.79475       96.64897       34.49089
H         65.16215       96.65783       35.00169
H         65.77064       95.34376       34.10901
N         66.16992      102.03312       28.80754
C         66.95324      101.61377       27.65209
C         66.08441      101.30789       26.43423
O         66.15646      100.17928       25.96889
C         68.08863      102.62225       27.36147
C         69.13650      102.04879       26.39604
C         70.30648      102.98138       26.26640
O         71.53203      102.58166       26.65848
O         70.15438      104.10448       25.81361
H         66.36308      102.95330       29.23199
H         67.47631      100.67638       27.95353
H         68.61105      102.82017       28.32432
H         67.70230      103.58839       26.97950
H         68.69083      101.86577       25.39559
H         69.50718      101.08041       26.79985
N         65.23648      102.19694       25.83490
C         64.97343      103.55534       26.26285
H         63.88926      103.66219       26.47763
H         65.52098      103.84665       27.17288
H         65.24351      104.25599       25.44526
H         64.71219      101.87675       25.00520
Ca        53.44323      106.22406       17.88335
O         54.18830      105.66893       20.69410
H         54.47224      104.78008       20.36321
H         54.51511      105.70549       21.62695
O         55.82571      104.27356       15.69880
H         56.68403      103.79378       15.58221
H         55.29410      104.02856       14.90001
O         56.85149      105.60971       18.84070
H         57.41177      105.04118       19.42674
H         57.34165      106.46832       18.78518

Ca 1.0



