%chk=apoCaM-CA-Ng.loop2.water5.frame1355.chk
%nprocshared=20
%mem=10GB
%nosave
#b3lyp/svp scf=(tight,noincore,xqc) Test 
#IOP(5/87=12) Density=Current Pop=(MK,readradii) iop(6/33=2) iop(6/42=6)

apoCaM-CA-Ng.loop2.water5.frame1355 

   -2  1 
C         68.09385       61.71856       81.03267
C         68.21778       61.02228       79.70885
O         69.33819       60.78755       79.27958
H         67.55261       62.67860       80.91238
H         67.55206       61.06184       81.74563
H         69.10062       61.93041       81.45377
N         67.13682       60.61747       78.98505
C         65.73675       60.82083       79.35726
C         64.96314       61.55776       78.25611
O         63.75436       61.68964       78.38798
C         65.11079       59.45409       79.72469
C         65.26866       58.44300       78.63270
O         64.71408       58.65560       77.43182
O         65.97295       57.46074       78.80495
H         67.32193       60.10097       78.10954
H         65.64075       61.44119       80.27234
H         64.03781       59.56904       79.98832
H         65.64056       59.07649       80.62793
N         65.59623       62.12537       77.18320
C         64.92186       62.89896       76.14211
C         65.32841       62.43141       74.74265
O         65.14200       63.18240       73.79443
C         65.31266       64.37091       76.32959
H         66.62375       62.08346       77.12215
H         63.81411       62.85600       76.23459
H         66.40977       64.50663       76.22222
H         64.79396       65.01054       75.58261
H         65.00407       64.71586       77.33982
N         65.87642       61.19989       74.53202
C         66.41216       60.75338       73.24561
C         65.49564       59.72668       72.60575
O         65.04220       58.81355       73.27893
C         67.86266       60.23336       73.43154
C         67.96283       59.10452       74.42188
O         68.53390       59.27821       75.48722
O         67.32323       57.94337       74.19863
H         65.92109       60.53859       75.32096
H         66.49089       61.60522       72.53525
H         68.47656       61.08403       73.80341
H         68.28517       59.90689       72.45785
N         65.16985       59.82358       71.28373
C         64.29079       58.87368       70.62029
C         64.84219       57.46310       70.61774
O         65.95131       57.23124       71.07987
H         65.54829       60.60218       70.72346
H         64.12841       59.18590       69.56613
H         63.30905       58.87933       71.14096
N         64.07365       56.44957       70.13062
C         64.48233       55.04605       70.18794
C         65.67868       54.77154       69.29264
O         66.06023       55.63586       68.51397
C         63.30523       54.13322       69.78439
C         62.10733       54.36420       70.67569
N         60.94300       54.82785       70.16268
O         62.19411       54.14167       71.87430
H         63.13676       56.68869       69.77013
H         64.76228       54.81361       71.23874
H         63.59589       53.06362       69.85969
H         63.03792       54.34216       68.72493
H         60.85085       55.03180       69.15674
H         60.13125       54.99578       70.77532
N         66.32983       53.57155       69.35867
C         67.47092       53.24486       68.51360
C         68.64647       54.18542       68.73087
O         68.57027       55.03965       69.60283
H         65.99902       52.85548       70.02321
H         67.13836       53.30930       67.45675
H         67.79958       52.20248       68.71708
N         69.77238       54.14732       67.95884
C         70.03214       53.18985       66.88513
C         71.36304       52.45843       67.07378
O         71.65588       51.59447       66.25901
C         70.03465       53.92601       65.52405
C         68.66464       54.54139       65.21463
O         71.01888       54.92905       65.53157
H         70.47653       54.88434       68.12164
H         69.24335       52.40976       66.85147
H         70.26140       53.18123       64.72514
H         71.19146       55.17247       64.58497
H         68.38070       55.29160       65.98242
H         68.69135       55.04362       64.22495
H         67.88970       53.74652       65.17729
N         72.22354       52.74795       68.09774
C         73.51707       52.09598       68.28680
C         73.48965       51.41231       69.64644
O         73.21216       52.10142       70.61854
C         74.65866       53.15140       68.21506
C         74.65935       53.94098       66.87753
C         76.03574       52.51074       68.47568
C         74.91204       53.10124       65.62005
H         71.97517       53.46920       68.78737
H         73.68780       51.36637       67.48290
H         74.48917       53.90060       69.02108
H         75.44512       54.72580       66.92940
H         73.68495       54.46172       66.75945
H         76.06661       52.05282       69.48559
H         76.26223       51.71742       67.73386
H         76.83295       53.28304       68.43645
H         74.89516       53.76468       64.73012
H         75.90566       52.61068       65.65804
H         74.12753       52.33195       65.48117
N         73.71177       50.07980       69.84586
C         74.14474       49.09752       68.85032
C         75.26003       48.23068       69.41979
O         75.66686       48.46594       70.55194
C         72.92604       48.28328       68.36397
C         72.21497       47.46602       69.41214
O         72.64620       47.41613       70.68692
O         71.22587       46.82616       69.09380
H         73.55550       49.73531       70.80660
H         74.57878       49.58328       67.95846
H         73.23960       47.59926       67.54797
H         72.19727       49.00144       67.92785
N         75.78699       47.18761       68.70881
C         76.82109       46.30908       69.25635
C         78.01412       46.17478       68.30876
O         77.87108       46.55965       67.15347
C         76.17787       44.95550       69.62479
C         75.58025       44.23524       68.43864
C         74.18466       44.19193       68.27148
C         76.40318       43.59649       67.49462
C         73.62524       43.53371       67.17305
C         75.83872       42.93046       66.40294
C         74.45130       42.90206       66.24019
H         75.40395       46.97295       67.77572
H         77.16987       46.75642       70.19418
H         75.37062       45.19256       70.35347
H         76.88088       44.28075       70.15236
H         73.52935       44.67880       68.98299
H         77.47939       43.60151       67.60745
H         72.55067       43.51365       67.04571
H         76.47765       42.43538       65.68328
H         74.01623       42.38916       65.39245
N         79.22874       45.64571       68.67963
C         79.64553       45.22540       70.01667
C         79.34865       46.25371       71.08334
O         78.73483       45.89815       72.08129
C         81.16182       45.03274       69.87979
C         81.27350       44.52534       68.46462
C         80.31056       45.45592       67.73202
H         79.16410       44.25193       70.25505
H         81.68104       46.01820       69.89819
H         81.61284       44.38346       70.66089
H         82.30064       44.49383       68.04383
H         80.84992       43.49389       68.44911
H         80.76294       46.44638       67.50470
H         79.98175       44.95460       66.79528
N         79.66765       47.57016       70.89999
C         79.26003       48.59520       71.85165
C         80.01292       48.38455       73.16057
O         81.23148       48.48783       73.12470
C         79.52393       50.03967       71.34875
C         78.68723       50.48693       70.13241
C         79.11057       49.86397       68.83651
O         78.31089       49.23122       68.16843
O         80.36655       50.03977       68.38243
H         80.15674       47.84293       70.03633
H         78.16701       48.52571       71.96533
H         80.60473       50.21176       71.15364
H         79.22038       50.71674       72.17865
H         78.81391       51.58380       70.00973
H         77.61103       50.29249       70.32954
N         79.42821       48.08787       74.36097
C         78.01450       47.89311       74.62599
H         77.35626       47.99072       73.75081
H         77.86356       46.87267       75.03616
H         77.68068       48.63152       75.38390
H         80.05061       47.97864       75.17676
Ca        65.73210       57.61839       75.73877
O         62.49271       57.28883       74.66528
H         62.06104       57.95912       74.07835
H         61.73836       56.81797       75.10109
O         66.94085       55.08712       76.59245
H         66.81037       54.26832       77.13278
H         67.87980       55.03829       76.28231
O         63.86197       54.51864       75.39031
H         62.92618       54.34360       75.11834
H         64.15811       53.67671       75.81888
O         66.19379       55.34630       73.44217
H         67.03094       55.49085       72.93360
H         66.21658       54.38822       73.68838
O         62.91931       56.33556       77.76351
H         62.32550       57.11997       77.87686
H         62.33511       55.55408       77.92880

Ca 1.0



