%chk=apoCaM-CA-Ng.loop3.water6.frame21.chk
%nprocshared=20
%mem=10GB
%nosave
#b3lyp/svp scf=(tight,noincore,xqc) Test 
#IOP(5/87=12) Density=Current Pop=(MK,readradii) iop(6/33=2) iop(6/42=6)

apoCaM-CA-Ng.loop3.water6.frame21 

   0  1 
C         95.62690       52.70778       44.55329
C         96.30327       54.02452       44.79972
O         97.26252       54.34427       44.11289
H         94.56311       52.87866       44.28606
H         96.11901       52.15541       43.72471
H         95.67281       52.08808       45.47372
N         95.84769       54.83926       45.79273
C         96.41498       56.14101       46.13558
C         97.86761       56.00249       46.57387
O         98.73604       56.67758       46.03767
C         96.23757       57.14618       44.97214
C         94.79362       57.29128       44.57889
O         94.43554       57.01629       43.44443
O         93.88892       57.73195       45.47374
H         95.04377       54.51593       46.35354
H         95.85114       56.53462       47.01095
H         96.82604       56.81585       44.08903
H         96.61808       58.14362       45.27998
N         98.19867       55.09771       47.53801
C         99.56782       54.85003       47.98315
C        100.10596       53.54331       47.42179
O        101.24388       53.20651       47.72338
C         99.61703       54.80739       49.52624
C         99.30401       56.13996       50.22363
C        100.34820       57.21945       49.88692
C        100.25404       58.46206       50.78439
N         98.97375       59.15628       50.65609
H         97.45087       54.50081       47.92582
H        100.26180       55.62713       47.60152
H        100.63183       54.49607       49.85841
H         98.90124       54.03414       49.88533
H         99.34252       55.94291       51.31755
H         98.27918       56.48356       49.96658
H        100.25520       57.52335       48.82303
H        101.36347       56.79288       50.04247
H        101.07381       59.15623       50.49375
H        100.41648       58.16915       51.84564
H         98.19471       58.55645       51.00921
H         99.00597       60.02571       51.23619
H         98.80382       59.41957       49.65869
N         99.37194       52.76624       46.57822
C         99.86675       51.52093       46.01506
C        101.08340       51.77933       45.14020
O        100.99238       52.56661       44.20803
C         98.74098       50.85473       45.18841
C         99.05352       49.46140       44.71883
O         98.23496       48.85687       44.04600
O        100.20218       48.85385       45.05903
H         98.41819       53.05631       46.32691
H        100.12392       50.83767       46.85277
H         98.50514       51.49336       44.30930
H         97.83128       50.77729       45.82181
N        102.25212       51.11889       45.37110
C        103.40939       51.20930       44.49615
C        103.06144       50.69698       43.11672
O        103.28716       51.39977       42.14185
H        102.31429       50.47813       46.17565
H        104.21872       50.57002       44.90722
H        103.79018       52.25361       44.45424
N        102.46674       49.47599       42.97332
C        102.07144       48.90872       41.68312
C        101.08132       49.79761       40.91610
O        100.94173       49.61444       39.71726
C        101.44418       47.50827       41.87487
C        102.34459       46.53763       42.60140
N        103.53906       46.17094       42.08408
O        101.98004       46.06438       43.66697
H        102.29852       48.92771       43.82708
H        102.99769       48.82355       41.07240
H        101.19198       47.06825       40.89282
H        100.49950       47.62454       42.45263
H        103.86141       46.54583       41.18109
H        104.14047       45.50126       42.58741
N        100.38619       50.79364       41.53348
C         99.55465       51.77984       40.85591
C         98.29645       51.21902       40.23139
O         97.53739       50.58580       40.94375
H        100.48394       50.90059       42.54727
H        100.16749       52.33633       40.11529
H         99.21391       52.51277       41.61936
N         97.97802       51.51256       38.92933
C         96.75013       51.14372       38.20867
C         96.64337       49.65424       37.96444
O         96.77389       49.26162       36.81579
C         95.47056       51.68991       38.87206
C         95.36800       53.18792       38.79069
C         95.75729       53.99702       39.86846
C         94.83725       53.78544       37.63463
C         95.61636       55.38664       39.78977
C         94.68800       55.17189       37.56178
C         95.07597       55.97813       38.64120
O         94.92848       57.31713       38.58788
H         98.64988       52.08864       38.39923
H         96.81919       51.60558       37.19507
H         95.38389       51.35419       39.92494
H         94.57689       51.27112       38.35664
H         96.16754       53.55277       40.76686
H         94.52250       53.17513       36.79621
H         95.91913       56.00348       40.62611
H         94.26445       55.61617       36.66938
H         94.54276       57.76105       37.81884
N         96.33207       48.78397       38.96870
C         96.29474       47.32774       38.88998
C         97.71746       46.77900       38.86929
O         98.08858       46.08737       39.80835
C         95.40010       46.75291       37.74779
C         94.05729       47.50727       37.54621
C         95.13966       45.25170       37.99686
C         93.17007       47.62349       38.78581
H         96.08114       49.16925       39.88541
H         95.83602       46.98701       39.84851
H         95.94374       46.84173       36.78247
H         93.48250       47.00114       36.73896
H         94.26453       48.53685       37.18938
H         94.58206       45.09420       38.94419
H         94.55019       44.81427       37.16387
H         96.08829       44.68559       38.07714
H         92.24368       48.17290       38.51266
H         92.88026       46.62765       39.17422
H         93.68469       48.20000       39.58145
N         98.58739       47.07500       37.85703
C         99.96749       46.61665       37.83203
C        100.05451       45.12663       37.56719
O        101.13668       44.57456       37.70420
C        100.75927       47.35674       36.73854
O        100.65907       48.74675       36.91497
H         98.28311       47.66067       37.08019
H        100.42484       46.86290       38.81033
H        100.35055       47.10613       35.73585
H        101.82587       47.02954       36.74733
H        101.52859       49.06622       37.26874
N         98.96272       44.42294       37.13771
C         98.94803       43.00972       36.78954
C         99.17160       42.07641       37.96770
O         99.10265       40.87408       37.74103
C         99.93843       42.72615       35.64948
H         98.07667       44.91832       36.97848
H         97.93097       42.77780       36.39970
H         99.72632       43.39803       34.79040
H        100.98936       42.87794       35.96823
H         99.83686       41.67662       35.30254
N         99.43380       42.51440       39.23712
C         99.66705       41.60135       40.34790
C         98.72815       41.86873       41.50509
O         98.01267       42.86346       41.50500
C        101.11898       41.73249       40.80906
H         99.49797       43.52118       39.44006
H         99.50351       40.55032       40.02403
H        101.32089       42.76660       41.16315
H        101.33903       41.01953       41.63086
H        101.79922       41.50662       39.96032
N         98.66551       40.96754       42.52530
C         97.81084       41.08493       43.69898
C         96.36170       41.29441       43.28999
O         95.72949       42.23770       43.74656
C         98.32691       42.18301       44.65679
C         99.77428       41.91744       45.10032
C        100.22398       42.93525       46.10642
O        101.18424       43.65114       45.87214
O         99.57863       43.04878       47.28312
H         99.23748       40.11106       42.45292
H         97.86451       40.12125       44.25376
H         97.67364       42.19353       45.55793
H         98.26902       43.17891       44.16775
H        100.44660       41.94603       44.21455
H         99.84835       40.91250       45.56823
N         95.78316       40.44769       42.39365
C         94.41867       40.59156       41.92728
H         93.88625       41.43135       42.42173
H         94.42378       40.77918       40.83293
H         93.86042       39.65495       42.13107
H         96.34194       39.67659       41.99856
Ca       101.37324       46.68412       46.49521
O        102.55375       48.75849       48.43656
H        102.29053       48.35930       49.30326
H        102.43064       49.73266       48.56231
O         98.85660       45.70327       45.19661
H         99.04685       45.64153       44.22686
H         98.14732       46.38908       45.27074
O        103.89496       45.49073       47.43008
H        104.81201       45.81463       47.24542
H        103.97039       44.50395       47.42079
O        103.93758       47.94924       45.65291
H        104.60816       47.91582       44.92586
H        104.33466       48.54760       46.33409
O        100.29110       45.62814       48.99030
H        100.93544       44.93736       48.69306
H         99.69816       45.15917       49.62853
O         99.49200       48.53909       48.17944
H         99.23152       49.37654       48.63861
H         98.63436       48.11777       47.92109

Ca 1.0



