%chk=apoCaM-CA-Ng.loop3.water6.frame1153.chk
%nprocshared=20
%mem=10GB
%nosave
#b3lyp/svp scf=(tight,noincore,xqc) Test 
#IOP(5/87=12) Density=Current Pop=(MK,readradii) iop(6/33=2) iop(6/42=6)

apoCaM-CA-Ng.loop3.water6.frame1153 

   0  1 
C         64.14814       51.55479       75.00097
C         62.95005       50.85489       74.43100
O         63.11017       49.77063       73.90040
H         64.88874       51.73516       74.19299
H         63.87257       52.52986       75.45394
H         64.61360       50.91796       75.78229
N         61.71369       51.42020       74.49567
C         60.50745       50.80504       73.94644
C         59.91420       51.64166       72.81418
O         58.84620       51.28762       72.33539
C         59.49566       50.55405       75.08646
C         59.08478       51.80032       75.82412
O         59.34236       51.91547       77.14085
O         58.50419       52.70311       75.24499
H         61.61887       52.34203       74.94941
H         60.72970       49.80685       73.50744
H         59.96255       49.85143       75.81149
H         58.58777       50.05695       74.68049
N         60.58423       52.71541       72.28900
C         60.12995       53.56268       71.18447
C         59.59931       52.74174       70.01214
O         58.52983       53.03557       69.50002
C         59.16206       54.67037       71.69539
C         57.75307       54.18705       72.10021
C         56.87006       55.32308       72.62377
C         55.38165       54.92088       72.67155
N         55.13250       53.72085       73.47258
H         61.52892       52.92720       72.64046
H         61.03423       54.10393       70.82429
H         59.03959       55.42290       70.88600
H         59.64344       55.17962       72.55983
H         57.81228       53.41188       72.88264
H         57.23953       53.76468       71.22041
H         56.93838       56.19600       71.93861
H         57.23397       55.63629       73.62667
H         55.02288       54.73946       71.63283
H         54.79894       55.77242       73.08531
H         55.48509       53.85184       74.44714
H         54.10217       53.54401       73.49885
H         55.58337       52.88545       73.03421
N         60.26829       51.63595       69.58454
C         59.66311       50.66956       68.66878
C         59.41880       49.37254       69.42062
O         60.06185       49.13990       70.43653
C         60.50187       50.50279       67.39144
C         61.87848       49.97908       67.67457
O         62.95363       50.76233       67.46923
O         62.02761       48.84952       68.11001
H         61.18056       51.41206       70.00847
H         58.66338       51.03021       68.34307
H         60.58395       51.50338       66.91352
H         59.99077       49.82243       66.67623
N         58.42207       48.52462       69.04020
C         58.07303       47.34431       69.81492
C         57.64920       47.75873       71.21770
O         56.71233       48.53806       71.31711
H         57.86519       48.74284       68.20022
H         58.93669       46.65475       69.80124
H         57.22219       46.82000       69.32933
N         58.28972       47.35662       72.35802
C         59.38782       46.39581       72.40403
C         60.05881       46.43637       73.77463
O         59.37097       46.23073       74.76550
C         58.85513       44.97102       72.11828
C         59.96704       43.94902       72.03636
N         60.19955       43.27471       70.88633
O         60.66091       43.72173       73.01647
H         57.97457       47.78146       73.24552
H         60.12545       46.66866       71.62918
H         58.29845       44.96852       71.16091
H         58.13380       44.66685       72.90820
H         59.62941       43.44689       70.04570
H         60.95842       42.57924       70.83391
N         61.39439       46.66719       73.94157
C         62.32196       46.87910       72.83460
C         63.75622       47.06343       73.28371
O         64.02937       47.01766       74.47570
H         61.74826       46.66743       74.91027
H         62.01136       47.78611       72.27926
H         62.29390       45.99922       72.15674
N         64.74057       47.28053       72.35950
C         66.13981       47.46220       72.73463
C         66.67256       48.81383       72.26806
O         66.01941       49.49386       71.48942
C         66.96173       46.28565       72.16167
C         68.35075       46.20065       72.74155
C         69.48703       46.32900       71.92666
C         68.51506       45.98255       74.12077
C         70.76674       46.25169       72.48845
C         69.79122       45.90920       74.67871
C         70.92309       46.04615       73.86466
O         72.16116       45.98283       74.39382
H         64.49258       47.29478       71.35925
H         66.21687       47.45144       73.84073
H         66.98409       46.36953       71.05186
H         66.45257       45.32933       72.41280
H         69.38468       46.49462       70.86147
H         67.65320       45.87054       74.76676
H         71.63791       46.35794       71.85497
H         69.89658       45.74635       75.74392
H         72.30702       45.84780       75.34138
N         67.85223       49.28620       72.76434
C         68.42051       50.58721       72.41142
C         68.81438       50.63998       70.94543
O         69.20565       49.61721       70.39862
C         69.63519       50.92580       73.33497
C         70.83577       49.96552       73.10223
C         70.05540       52.39974       73.17338
C         71.94920       50.11272       74.13820
H         68.32682       48.71921       73.47867
H         67.63285       51.34892       72.60987
H         69.27651       50.80358       74.38157
H         71.26238       50.11932       72.08732
H         70.49173       48.91714       73.16791
H         70.82374       52.68085       73.92044
H         70.46576       52.59362       72.16110
H         69.18285       53.06624       73.34179
H         72.41394       51.11751       74.09963
H         71.54768       49.92597       75.15689
H         72.74253       49.36369       73.93011
N         68.75787       51.81599       70.25488
C         69.17828       51.92793       68.85931
C         68.84604       53.28382       68.24994
O         68.45501       54.20518       68.95185
C         70.70418       51.69799       68.73393
O         71.39253       52.68103       69.46297
H         68.38781       52.64314       70.74601
H         68.62166       51.16359       68.27549
H         71.00181       51.74672       67.66215
H         70.99164       50.69686       69.11441
H         72.34141       52.63691       69.17511
N         69.00537       53.45467       66.90651
C         68.83808       54.70584       66.17977
C         69.89534       55.71033       66.59603
O         69.58439       56.88308       66.75929
C         67.40439       55.25612       66.29825
H         69.29746       52.63910       66.34585
H         69.02816       54.48376       65.10649
H         66.67024       54.49728       65.96070
H         67.16414       55.54007       67.34423
H         67.28430       56.16145       65.66645
N         71.18511       55.30003       66.80897
C         72.27979       56.19197       67.18070
C         72.02607       56.96547       68.47583
O         72.80923       57.85599       68.77807
C         72.58657       57.13467       66.00854
H         71.41314       54.30009       66.70215
H         73.20175       55.58709       67.33244
H         72.81644       56.53213       65.10261
H         71.73539       57.80768       65.78351
H         73.48029       57.75402       66.23618
N         70.96878       56.68592       69.29893
C         70.64656       57.47581       70.48419
C         71.75591       57.43419       71.52878
O         71.74532       58.26973       72.42235
C         69.30211       56.97164       71.08115
C         68.72324       57.78433       72.25679
C         68.29710       59.18723       71.90462
O         68.39800       59.62099       70.76776
O         67.76296       59.96897       72.86160
H         70.34487       55.90535       69.06551
H         70.53001       58.52416       70.13628
H         69.45461       55.92461       71.42673
H         68.53170       56.94803       70.27824
H         69.44664       57.81491       73.09497
H         67.82011       57.25244       72.62591
N         72.74455       56.49612       71.49536
C         73.80007       56.46699       72.48303
H         74.38409       57.41081       72.43851
H         73.36632       56.34561       73.49851
H         74.48254       55.61445       72.28231
H         72.75153       55.76762       70.76745
Ca        64.98556       50.05936       68.16138
O         66.39552       51.88079       66.30836
H         65.66799       51.53012       65.73631
H         67.07004       51.15660       66.32424
O         67.33365       48.26141       67.76647
H         67.99851       48.81786       67.28865
H         67.68469       48.18746       68.68898
O         63.28629       49.77849       70.67593
H         62.69450       50.16030       71.36962
H         62.88811       48.89825       70.46690
O         64.58384       48.45004       65.59119
H         63.69954       48.01966       65.70582
H         65.23665       47.72626       65.76526
O         64.37905       46.97471       68.58785
H         65.21070       46.53597       68.89748
H         63.65422       46.50941       69.07633
O         64.68530       52.39689       70.60401
H         64.29901       52.70659       69.74637
H         65.66262       52.50983       70.49272

Ca 1.0



