%chk=apoCaM-CA-Ng.loop4.water7.frame513.chk
%nprocshared=20
%mem=10GB
%nosave
#b3lyp/svp scf=(tight,noincore,xqc) Test 
#IOP(5/87=12) Density=Current Pop=(MK,readradii) iop(6/33=2) iop(6/42=6)

apoCaM-CA-Ng.loop4.water7.frame513 

   -3  1 
C         -0.33720       48.19813       51.47604
C         -0.64215       47.01341       52.33953
O         -0.89320       47.18955       53.52242
H          0.67559       48.09141       51.03615
H         -1.08929       48.26033       50.66107
H         -0.37877       49.13711       52.06867
N         -0.66259       45.76061       51.79413
C         -0.97724       44.53226       52.52840
C         -2.42818       44.50120       53.00823
O         -2.79805       43.56049       53.69810
C         -0.00954       44.31906       53.72259
C          1.44831       44.46356       53.36819
O          2.29316       44.33166       54.23881
O          1.82937       44.81389       52.12488
H         -0.43329       45.66385       50.79272
H         -0.83981       43.67167       51.83582
H         -0.17977       43.30573       54.14772
H         -0.22714       45.05573       54.52370
N         -3.30339       45.50208       52.69395
C         -4.65582       45.59941       53.23072
C         -5.51441       44.40549       52.82243
O         -5.18989       43.75427       51.83921
C         -5.30475       46.97847       52.85183
C         -5.45890       47.16651       51.31630
C         -4.49447       48.11930       53.50727
C         -6.13040       48.48581       50.92947
H         -2.98453       46.25658       52.08348
H         -4.55035       45.56270       54.33451
H         -6.32308       47.03663       53.27498
H         -6.08599       46.34049       50.91807
H         -4.47927       47.13085       50.79886
H         -4.39402       47.94006       54.59839
H         -3.47534       48.20385       53.08048
H         -5.00569       49.09507       53.39003
H         -6.25165       48.52825       49.82671
H         -7.13021       48.56786       51.40462
H         -5.50609       49.35403       51.22513
N         -6.59965       43.99795       53.54792
C         -7.03749       44.61892       54.79450
C         -6.33349       44.02888       55.99994
O         -6.18408       44.73723       56.98396
C         -8.56545       44.53446       54.95307
C         -9.28393       45.14270       53.77833
O         -9.11846       46.31636       53.48887
O        -10.11873       44.38959       53.03778
H         -7.09596       43.14742       53.23623
H         -6.79304       45.68851       54.79246
H         -8.87378       45.07071       55.87696
H         -8.86871       43.46968       55.05160
N         -5.87069       42.74712       56.00453
C         -5.21812       42.13998       57.15253
C         -6.16583       42.03132       58.32367
O         -7.23601       41.46101       58.16097
H         -5.98554       42.16243       55.16398
H         -4.30212       42.71131       57.41838
H         -4.90761       41.10871       56.87814
N         -5.82466       42.52054       59.55191
C         -6.70611       42.39004       60.71246
C         -7.99886       43.19093       60.57467
O         -8.91950       42.94336       61.34092
C         -5.96781       42.72169       62.03348
C         -5.36958       44.10420       62.13603
O         -5.43095       44.89911       61.21326
O         -4.71937       44.45446       63.26176
H         -4.89011       42.94012       59.66876
H         -6.99478       41.31710       60.78068
H         -5.13430       41.99716       62.15598
H         -6.67032       42.57616       62.88253
N         -8.13424       44.17425       59.64179
C         -9.35526       44.92806       59.41723
C         -9.21757       46.37236       59.83728
O        -10.09856       47.15107       59.50381
H         -7.32675       44.43196       59.06507
H        -10.22398       44.50100       59.96363
H         -9.58566       44.87323       58.33159
N         -8.18156       46.79236       60.62706
C         -8.03494       48.14260       61.15670
C         -7.71325       49.16443       60.07611
O         -7.77448       50.35011       60.36511
C         -9.25504       48.53287       62.03014
C         -9.46439       47.51789       63.16917
C        -10.65188       47.87846       64.02187
N        -11.69951       47.02838       64.14060
O        -10.66578       48.94383       64.62009
H         -7.48007       46.11175       60.93453
H         -7.15594       48.16140       61.83966
H        -10.17779       48.60015       61.41891
H         -9.07818       49.53626       62.47613
H         -8.55775       47.48378       63.81150
H         -9.61791       46.50496       62.73921
H        -11.70699       46.12287       63.64821
H        -12.50885       47.27424       64.72935
N         -7.25641       48.78003       58.84395
C         -6.86303       49.73455       57.80757
C         -5.36876       49.68386       57.50566
O         -4.92245       50.52526       56.73342
C         -7.69724       49.53062       56.51615
C         -7.49781       48.13969       55.90100
C         -9.18772       49.77683       56.77740
H         -7.14605       47.77860       58.63937
H         -7.04784       50.77257       58.15994
H         -7.36174       50.28406       55.76830
H         -6.42556       47.95153       55.70369
H         -7.88090       47.33746       56.56469
H         -8.03998       48.08189       54.93722
H         -9.58836       49.04379       57.50877
H         -9.34053       50.80208       57.17581
H         -9.76158       49.68291       55.83089
N         -4.52113       48.76930       58.06478
C         -3.07777       48.80810       57.82373
C         -2.47661       50.07571       58.42744
O         -3.18116       50.82878       59.08420
C         -2.38717       47.55805       58.42098
C         -2.85535       46.27827       57.77022
N         -2.63450       46.04966       56.45399
O         -3.41895       45.42926       58.44402
H         -4.89578       48.03222       58.68012
H         -2.89596       48.82009       56.72636
H         -2.58502       47.52213       59.51541
H         -1.28721       47.61010       58.27709
H         -2.14671       46.74351       55.86986
H         -2.93933       45.16651       56.01985
N         -1.15817       50.36545       58.23900
C         -0.50371       51.54682       58.79141
C          0.11116       52.35890       57.66725
O          0.96765       51.84903       56.95920
C          0.57591       51.09546       59.79383
C         -0.05923       50.48240       61.01956
C         -0.05733       49.09210       61.21527
C         -0.66626       51.30982       61.98095
C         -0.66289       48.53894       62.34913
C         -1.25522       50.75643       63.12141
C         -1.26079       49.37077       63.30806
O         -1.84255       48.85213       64.40853
H         -0.58090       49.71251       57.68827
H         -1.22539       52.19453       59.33507
H          1.21126       51.94775       60.12248
H          1.24298       50.36484       59.28499
H          0.39572       48.43592       60.48323
H         -0.67107       52.38559       61.85352
H         -0.66704       47.46456       62.48144
H         -1.70915       51.40583       63.86007
H         -1.87412       47.89918       64.57443
N         -0.27830       53.65270       57.46105
C          0.31517       54.51780       56.44259
C          1.79196       54.69266       56.75913
O          2.08268       55.17611       57.84504
C         -0.38751       55.89690       56.46494
C          0.13918       56.85554       55.38770
C         -0.50189       58.20748       55.51213
O         -1.71144       58.33143       55.40414
O          0.26063       59.29370       55.74309
H         -1.01494       54.04228       58.06917
H          0.14938       54.06013       55.44636
H         -0.24376       56.35963       57.46767
H         -1.47949       55.75142       56.30857
H         -0.07495       56.43965       54.38181
H          1.23759       56.97988       55.49553
N          2.80657       54.30539       55.93437
C          2.67311       53.70559       54.60805
C          2.33097       54.75711       53.57102
O          3.06877       55.72538       53.44337
C          4.01072       53.04274       54.21085
C          4.31619       51.83716       55.11540
C          5.67952       51.28152       54.83468
O          6.77032       52.04614       55.03458
O          5.81097       50.12946       54.45612
H          3.76174       54.42228       56.30991
H          1.91296       52.89471       54.61625
H          4.82550       53.79883       54.27917
H          3.96250       52.68088       53.15907
H          3.53914       51.05749       54.94727
H          4.28845       52.12821       56.18566
N          1.25136       54.59856       52.75408
C          0.91633       55.51976       51.68442
H         -0.10366       55.92477       51.84509
H          1.62746       56.37000       51.61458
H          0.93656       54.97597       50.71576
H          0.64867       53.77038       52.86919
Ca         3.92192       45.53253       51.71149
O          5.27235       48.27631       51.97868
H          5.01592       49.22916       52.05495
H          6.25885       48.27425       52.06427
O          4.91117       42.82163       52.24180
H          5.87521       43.04123       52.29346
H          4.57096       42.98395       53.15742
O          3.42473       43.97602       49.24409
H          3.59518       44.38272       48.35794
H          2.46904       44.16317       49.42369
O          3.96135       47.70150       49.11500
H          4.23820       46.95457       48.52699
H          4.52338       48.46433       48.82729
O          5.69632       45.95899       54.06941
H          6.09265       45.31734       54.71031
H          5.49581       46.76315       54.61092
O          2.42272       47.60089       53.97713
H          1.98829       47.05450       54.67928
H          3.20764       48.00216       54.42736
O          6.66104       45.71208       50.66974
H          7.35959       45.12903       50.28104
H          6.39442       46.31169       49.92833

Ca 1.0



