%chk=apoCaM-CA-Ng.loop4.water7.frame902.chk
%nprocshared=20
%mem=10GB
%nosave
#b3lyp/svp scf=(tight,noincore,xqc) Test 
#IOP(5/87=12) Density=Current Pop=(MK,readradii) iop(6/33=2) iop(6/42=6)

apoCaM-CA-Ng.loop4.water7.frame902 

   -3  1 
C         82.57255       -5.33826       40.03573
C         82.56727       -6.77616       39.61360
O         83.60714       -7.41592       39.68379
H         82.25947       -4.69401       39.18897
H         81.86902       -5.19880       40.88268
H         83.58928       -5.03020       40.36363
N         81.40988       -7.36063       39.17878
C         81.30656       -8.76048       38.76836
C         81.62175       -9.71244       39.92962
O         81.84668      -10.88994       39.68938
C         82.18484       -8.99332       37.51161
C         81.96437      -10.33953       36.87977
O         82.89683      -11.11517       36.74217
O         80.73941      -10.68602       36.43945
H         80.55424       -6.78581       39.14113
H         80.25635       -8.95820       38.45857
H         83.26141       -8.86813       37.75085
H         81.90768       -8.23623       36.74821
N         81.62564       -9.27191       41.22532
C         82.01693      -10.10637       42.36259
C         81.11822      -11.33222       42.51831
O         79.97306      -11.26829       42.09250
C         82.02514       -9.29388       43.69960
C         80.59823       -8.80188       44.08296
C         83.04416       -8.13922       43.62489
C         80.52707       -8.10075       45.43770
H         81.37203       -8.29427       41.40695
H         83.04968      -10.42959       42.15239
H         82.37233       -9.97066       44.50774
H         79.91875       -9.67729       44.15251
H         80.19226       -8.11586       43.31089
H         82.75439       -7.37460       42.87577
H         83.14670       -7.63722       44.60736
H         84.04637       -8.53549       43.35689
H         81.10811       -7.15727       45.43295
H         79.46906       -7.84418       45.65889
H         80.90383       -8.77158       46.23832
N         81.51441      -12.47986       43.15354
C         82.88249      -12.78768       43.58264
C         83.75398      -12.86073       42.34719
O         84.77357      -12.18761       42.27747
C         82.95162      -14.13817       44.33051
C         82.20081      -14.11247       45.63696
O         82.86270      -14.30311       46.79449
O         80.99315      -13.93777       45.66006
H         80.80133      -13.21780       43.26330
H         83.26800      -12.01575       44.28213
H         84.01930      -14.35563       44.55802
H         82.56137      -14.96270       43.69587
N         83.32484      -13.58696       41.27973
C         83.90980      -13.46987       39.96299
C         85.06090      -14.39947       39.71975
O         85.47979      -15.13880       40.59987
H         82.41980      -14.07664       41.34886
H         84.19539      -12.41516       39.75435
H         83.12722      -13.74576       39.22332
N         85.57967      -14.43184       38.46370
C         86.61190      -15.36042       38.02318
C         87.96035      -15.17734       38.71081
O         88.81098      -16.03622       38.52248
C         86.73460      -15.31080       36.47570
C         86.90250      -13.92136       35.89502
O         86.05339      -13.47745       35.13835
O         87.96073      -13.15448       36.19849
H         85.14819      -13.80362       37.76837
H         86.27202      -16.38798       38.28323
H         85.78806      -15.72214       36.06010
H         87.55553      -15.97180       36.13176
N         88.24431      -14.11847       39.52370
C         89.52133      -13.96212       40.20975
C         90.71027      -13.70754       39.29643
O         91.79072      -13.49993       39.82757
H         87.52944      -13.39861       39.69691
H         89.71674      -14.85750       40.84005
H         89.44697      -13.08272       40.88586
N         90.59977      -13.68030       37.93312
C         91.68372      -13.39095       37.00225
C         92.15619      -11.94489       37.09077
O         93.12135      -11.61945       36.41334
C         92.83621      -14.42184       37.13953
C         92.35132      -15.87132       36.93782
C         91.76409      -16.08048       35.56235
N         90.46664      -16.43297       35.40962
O         92.46695      -15.92108       34.57559
H         89.70051      -13.87716       37.50180
H         91.29284      -13.49307       35.96549
H         93.31920      -14.34285       38.13436
H         93.61991      -14.20523       36.38059
H         91.60303      -16.11657       37.72181
H         93.20606      -16.56970       37.06573
H         89.85788      -16.56720       36.22747
H         90.06479      -16.56368       34.46951
N         91.50152      -11.00690       37.84707
C         91.94232       -9.61696       37.95183
C         90.91263       -8.60687       37.44631
O         91.27042       -7.43757       37.39213
C         92.32142       -9.27890       39.42463
C         91.12251       -9.38727       40.38900
C         93.47054      -10.16597       39.92030
H         90.66405      -11.27818       38.37617
H         92.84831       -9.46351       37.32553
H         92.68289       -8.22690       39.45511
H         90.29567       -8.71975       40.06803
H         90.73776      -10.42640       40.45105
H         91.42624       -9.07663       41.41068
H         93.17199      -11.23428       39.93577
H         94.35553      -10.05065       39.25988
H         93.76414       -9.86892       40.94982
N         89.62441       -8.93753       37.11865
C         88.62082       -7.92818       36.75769
C         87.99074       -8.27076       35.40375
O         88.35846       -9.28721       34.82847
C         87.58266       -7.85435       37.91413
C         87.12038       -6.44453       38.25425
N         87.36516       -5.92137       39.48008
O         86.52689       -5.76360       37.43739
H         89.30930       -9.91515       37.20119
H         89.10918       -6.93344       36.67636
H         88.07829       -8.22695       38.83677
H         86.73284       -8.54622       37.72687
H         87.86196       -6.46020       40.20393
H         87.05309       -4.96598       39.71004
N         87.02595       -7.48372       34.83841
C         86.38837       -7.77664       33.55461
C         86.51123       -6.58641       32.60974
O         86.91093       -5.51288       33.04084
C         84.92163       -8.26504       33.73631
C         83.92716       -7.25906       34.28985
C         84.05761       -6.72944       35.58398
C         82.81939       -6.86906       33.51646
C         83.14457       -5.79071       36.07136
C         81.88850       -5.95184       34.01773
C         82.05694       -5.39485       35.28591
O         81.16597       -4.49009       35.73951
H         86.74076       -6.63213       35.32343
H         86.92711       -8.62259       33.07449
H         84.92193       -9.15590       34.40171
H         84.56720       -8.61113       32.74075
H         84.85464       -7.04604       36.22854
H         82.67061       -7.27643       32.52437
H         83.27916       -5.38202       37.06310
H         81.03645       -5.66432       33.41644
H         81.25575       -4.06829       36.60594
N         86.25575       -6.73499       31.27805
C         86.46424       -5.67628       30.29323
C         85.24225       -5.58977       29.38148
O         85.30306       -6.08407       28.26359
C         87.75755       -5.99658       29.51178
C         88.15963       -4.84871       28.56938
C         89.44546       -5.16201       27.86253
O         90.57186       -5.37471       28.56989
O         89.47995       -5.21244       26.64353
H         85.99501       -7.67115       30.93019
H         86.65324       -4.69734       30.78173
H         87.64243       -6.94725       28.94505
H         88.57882       -6.13518       30.24997
H         88.29958       -3.91554       29.15732
H         87.36156       -4.66777       27.81862
N         84.05979       -5.03958       29.77475
C         83.85119       -4.33598       31.03638
C         84.56199       -2.99118       31.04978
O         85.12999       -2.59425       30.04019
C         82.34030       -4.17869       31.31174
C         81.54927       -3.29867       30.32349
C         80.06422       -3.40043       30.56839
O         79.20697       -2.76256       29.75349
O         79.61626       -4.10149       31.46371
H         83.26839       -5.13947       29.12231
H         84.24901       -4.96916       31.85656
H         82.18714       -3.76855       32.33313
H         81.91607       -5.20509       31.27474
H         81.71755       -3.63274       29.28179
H         81.87505       -2.23992       30.40850
N         84.56940       -2.22879       32.17719
C         85.22790       -0.94098       32.22824
H         86.31058       -1.05782       32.00812
H         84.77194       -0.25142       31.48589
H         85.11662       -0.49719       33.24027
H         84.09927       -2.57124       33.02829
Ca        77.01581       -3.22412       30.03317
O         74.58029       -2.68053       31.65841
H         74.31839       -3.09852       32.51664
H         73.72398       -2.43684       31.22566
O         74.54688       -4.27095       28.56084
H         74.67210       -5.17740       28.18268
H         73.57256       -4.19944       28.72103
O         76.84669       -4.73581       33.00690
H         77.55142       -5.35170       33.33016
H         76.61562       -4.18499       33.79645
O         77.77378       -1.31568       32.34768
H         76.88837       -1.21203       32.77817
H         78.17139       -2.10801       32.78836
O         76.38078       -6.63475       30.59440
H         75.56605       -6.81813       31.12651
H         76.71765       -7.53009       30.33891
O         76.14560       -0.66546       28.72763
H         75.79447       -0.75417       29.64948
H         75.72277       -1.40909       28.22841
O         77.64929       -5.42459       27.90548
H         77.77650       -4.76387       27.17904
H         78.23706       -6.18239       27.65984

Ca 1.0



