%chk=apoCaM-CA-Ng.loop3.water4.frame95.chk
%nprocshared=20
%mem=10GB
%nosave
#b3lyp/svp scf=(tight,noincore,xqc) Test 
#IOP(5/87=12) Density=Current Pop=(MK,readradii) iop(6/33=2) iop(6/42=6)

apoCaM-CA-Ng.loop3.water4.frame95 

   0  1 
C         27.11346       65.46418       87.13553
C         27.02587       66.81040       87.79188
O         26.11569       67.56170       87.47397
H         27.98675       64.88793       87.50849
H         26.19155       64.88510       87.35244
H         27.21669       65.59140       86.03793
N         27.94921       67.18406       88.72338
C         27.94574       68.46423       89.41833
C         28.13902       69.59843       88.42256
O         27.29794       70.47986       88.30652
C         26.69103       68.59414       90.31840
C         26.72996       69.76814       91.26712
O         27.67876       70.53718       91.29300
O         25.70699       69.95563       92.12221
H         28.70770       66.52582       88.95952
H         28.82369       68.47526       90.10423
H         26.61999       67.67938       90.94638
H         25.77259       68.66310       89.70046
N         29.28804       69.63854       87.69283
C         29.62887       70.73057       86.78405
C         28.87675       70.64004       85.46173
O         28.94782       71.58735       84.68995
C         31.14582       70.70244       86.47211
C         32.05347       70.77109       87.72178
C         32.04091       72.10590       88.48273
C         32.68218       73.24293       87.67181
N         32.80923       74.45495       88.47959
H         29.97495       68.88711       87.85408
H         29.38361       71.69391       87.28235
H         31.41649       71.51651       85.76719
H         31.36192       69.73914       85.95877
H         33.09961       70.56410       87.41031
H         31.77554       69.96678       88.43176
H         32.65228       71.95979       89.39980
H         31.01224       72.37661       88.80319
H         32.07651       73.46494       86.76769
H         33.69868       72.92644       87.34617
H         33.39818       74.26333       89.32313
H         33.27623       75.19684       87.90961
H         31.86535       74.79241       88.77608
N         28.21177       69.50770       85.08742
C         27.58166       69.36048       83.78006
C         26.41884       70.32378       83.63405
O         25.69634       70.54423       84.59643
C         27.13146       67.90102       83.56531
C         26.65310       67.65306       82.15990
O         25.41413       67.18134       81.93492
O         27.40217       67.84532       81.21530
H         28.20679       68.69519       85.72032
H         28.34889       69.57029       82.99974
H         26.34501       67.63588       84.30086
H         28.00092       67.22915       83.73516
N         26.16277       70.90460       82.42946
C         25.09049       71.85689       82.19699
C         23.73803       71.33121       82.62060
O         23.06894       72.00966       83.38739
H         26.75890       70.65925       81.62433
H         25.06168       72.10079       81.11275
H         25.30714       72.79923       82.74721
N         23.27629       70.12607       82.17960
C         21.96096       69.59664       82.54201
C         22.03649       68.36657       83.44132
O         20.98707       67.84169       83.78877
C         21.13761       69.30401       81.26579
C         21.64290       68.16947       80.39695
N         20.94594       67.81718       79.29275
O         22.65767       67.55309       80.68639
H         23.88864       69.56242       81.57313
H         21.39129       70.35864       83.11728
H         21.08365       70.23033       80.65333
H         20.10254       69.04374       81.57626
H         20.08271       68.31714       79.03500
H         21.26060       67.03500       78.70046
N         23.22361       67.85709       83.87882
C         23.32097       66.68162       84.73191
C         22.83021       65.41205       84.06252
O         22.38991       65.44174       82.92143
H         24.09948       68.33416       83.63476
H         22.74314       66.85768       85.66482
H         24.38364       66.52337       85.01282
N         22.87618       64.23812       84.75538
C         22.37569       62.96204       84.23645
C         23.14750       62.51420       82.98950
O         24.12555       63.15181       82.62783
C         22.41584       61.91948       85.38981
C         21.81219       60.57201       85.07448
C         20.47316       60.46239       84.65730
C         22.58594       59.40610       85.20195
C         19.93127       59.21157       84.34584
C         22.03973       58.15691       84.89810
C         20.71103       58.05614       84.46313
O         20.17431       56.85768       84.15805
H         23.24710       64.27206       85.71863
H         21.31532       63.11989       83.94327
H         21.84330       62.33471       86.24805
H         23.47201       61.79965       85.71915
H         19.85428       61.34443       84.55624
H         23.61532       59.46152       85.53408
H         18.90439       59.14121       84.01019
H         22.65185       57.26939       84.99858
H         20.68064       56.03551       84.22588
N         22.72234       61.44212       82.25545
C         23.32809       61.00453       81.00098
C         22.25953       61.10345       79.91912
O         22.45677       61.83140       78.95844
C         23.91129       59.56546       81.11973
C         24.91445       59.48798       82.29994
C         24.60689       59.16953       79.79914
C         25.47839       58.08609       82.54405
H         21.89525       60.92610       82.56907
H         24.17686       61.67155       80.73227
H         23.07876       58.85508       81.31948
H         24.39603       59.78865       83.22992
H         25.75624       60.19569       82.13664
H         25.46810       59.84191       79.59429
H         24.96631       58.12209       79.82634
H         23.91173       59.23536       78.94484
H         26.10270       57.74508       81.69386
H         26.12716       58.10293       83.44486
H         24.65385       57.36159       82.71408
N         21.07029       60.43811       80.03344
C         19.98240       60.63072       79.07713
C         20.32863       60.13510       77.68714
O         19.69641       60.58649       76.74284
C         18.69055       59.95908       79.55670
O         18.33299       60.47414       80.81031
H         20.90882       59.83846       80.85630
H         19.79085       61.72673       79.01628
H         18.86178       58.85995       79.62471
H         17.87142       60.16533       78.83199
H         17.65316       59.85527       81.18278
N         21.32022       59.21892       77.48058
C         21.76218       58.78493       76.16354
C         22.30880       59.97906       75.41179
O         21.81504       60.32186       74.34503
C         20.65396       58.03187       75.41057
H         21.81270       58.82173       78.29113
H         22.60007       58.06265       76.29038
H         20.32606       57.15553       76.00880
H         19.77406       58.67262       75.20350
H         21.04758       57.66035       74.43982
N         23.36962       60.65403       75.93589
C         23.98494       61.79903       75.27872
C         25.32632       62.15212       75.89650
O         25.63060       61.74488       77.00964
C         23.06121       63.02377       75.31691
H         23.77901       60.28653       76.80689
H         24.18959       61.50105       74.22576
H         22.08881       62.81036       74.82888
H         22.86652       63.31812       76.37131
H         23.53018       63.88227       74.79071
N         26.23326       62.82934       75.14164
C         27.60433       63.11702       75.54277
C         28.31925       61.86483       76.04515
O         29.10102       61.95451       76.98212
C         27.69277       64.31595       76.52593
C         27.01803       65.56980       75.93797
C         27.43526       66.84757       76.62755
O         28.06379       67.67856       75.99211
O         27.13409       67.12423       77.91102
H         25.96973       63.07855       74.17487
H         28.14091       63.43229       74.61936
H         28.77394       64.53263       76.67186
H         27.25056       64.07327       77.51614
H         25.91192       65.45568       75.94543
H         27.34242       65.66280       74.87860
N         28.05975       60.64736       75.48310
C         28.66267       59.40966       75.93721
H         29.41012       59.57000       76.74201
H         27.86978       58.73633       76.32830
H         29.16524       58.91098       75.08320
H         27.37174       60.57612       74.71871
Ca        25.83968       65.94396       79.30133
O         24.42585       63.61976       79.00382
H         23.62114       64.19237       78.93916
H         24.92929       63.81992       78.17793
O         23.65572       67.02491       77.56082
H         23.33361       67.88359       77.18785
H         23.56211       66.37703       76.81824
O         26.87760       64.52499       81.78397
H         26.10015       64.15610       81.29544
H         27.22975       63.76001       82.30263
O         25.30393       69.35118       79.28090
H         26.26339       69.59167       79.32033
H         24.82943       70.21811       79.33779

Ca 1.0



