%chk=apoCaM-CA-Ng.loop4.water5.frame866.chk
%nprocshared=20
%mem=10GB
%nosave
#b3lyp/svp scf=(tight,noincore,xqc) Test 
#IOP(5/87=12) Density=Current Pop=(MK,readradii) iop(6/33=2) iop(6/42=6)

apoCaM-CA-Ng.loop4.water5.frame866 

   -3  1 
C         49.24782       61.07117       83.90194
C         49.58332       62.40967       83.31408
O         50.74021       62.79678       83.36953
H         48.17228       60.82853       83.77290
H         49.84975       60.28605       83.39732
H         49.48497       61.07054       84.98638
N         48.61904       63.16746       82.71032
C         48.84252       64.48706       82.11826
C         49.76637       64.45113       80.89097
O         50.04559       65.50566       80.33770
C         49.31283       65.47152       83.21369
C         49.24797       66.91016       82.78449
O         50.35869       67.67081       82.79557
O         48.18115       67.40463       82.45521
H         47.65567       62.80030       82.68105
H         47.85533       64.85489       81.75915
H         50.34587       65.22915       83.53021
H         48.64046       65.36896       84.09311
N         50.23682       63.27404       80.37757
C         51.08733       63.17600       79.18729
C         50.38222       63.72410       77.93950
O         49.17548       63.91738       77.99853
C         51.45797       61.67637       78.90826
C         50.18221       60.79354       78.71127
C         52.37698       61.10683       80.00212
C         50.45540       59.44754       78.04751
H         49.97401       62.40408       80.84562
H         52.00082       63.77727       79.38358
H         52.04159       61.65072       77.97611
H         49.46141       61.30623       78.04220
H         49.66858       60.61365       79.67933
H         51.87474       61.08831       80.99124
H         52.69419       60.07391       79.75184
H         53.29623       61.72507       80.08083
H         49.49416       58.89953       77.93678
H         50.87891       59.61143       77.03369
H         51.14466       58.82221       78.64613
N         51.01099       63.94830       76.74045
C         52.45589       63.94438       76.48949
C         52.84798       65.30690       75.90322
O         51.96083       66.09926       75.61236
C         52.80243       62.80608       75.49495
C         54.28212       62.62375       75.29356
O         54.77205       62.74606       74.18223
O         55.07405       62.31517       76.33941
H         50.40791       64.20014       75.94056
H         53.01021       63.78435       77.43526
H         52.30389       63.00362       74.52108
H         52.41470       61.83806       75.86581
N         54.15118       65.65594       75.69367
C         54.53831       66.90464       75.04614
C         55.28759       67.84997       75.95773
O         55.65390       68.91875       75.48986
H         54.90446       65.01991       75.99097
H         53.65225       67.45667       74.66840
H         55.17426       66.66098       74.16782
N         55.55434       67.54121       77.25830
C         56.27443       68.42528       78.16595
C         57.61038       67.80948       78.51247
O         58.62450       68.46588       78.31461
C         55.43462       68.77829       79.41638
C         55.03393       67.61678       80.28859
O         54.29671       66.74253       79.86307
O         55.44860       67.56517       81.56883
H         55.25769       66.62758       77.62116
H         56.48599       69.40320       77.67589
H         54.51147       69.30596       79.09318
H         56.02908       69.49045       80.03144
N         57.70421       66.53129       78.97958
C         58.98333       65.91275       79.26094
C         59.65137       66.47379       80.49383
O         60.79216       66.10553       80.72589
H         56.85816       65.95395       79.08152
H         59.64121       66.03847       78.37211
H         58.84825       64.82220       79.42642
N         59.00601       67.31726       81.36156
C         59.61165       67.86219       82.57402
C         60.00607       66.79046       83.59092
O         60.62503       67.15856       84.57948
C         60.80726       68.78961       82.21509
C         60.38152       70.04976       81.43042
C         59.58431       71.05000       82.24703
N         59.16577       72.20343       81.67812
O         59.33208       70.84195       83.42517
H         58.03303       67.59175       81.17422
H         58.85842       68.48213       83.10107
H         61.55275       68.22731       81.61773
H         61.33035       69.13362       83.13350
H         59.80519       69.75315       80.52829
H         61.30134       70.57336       81.09231
H         59.37390       72.41016       80.69074
H         58.63556       72.89511       82.22968
N         59.64830       65.47287       83.46534
C         60.04940       64.44987       84.43639
C         58.87551       63.82301       85.18080
O         59.14048       63.10039       86.13371
C         60.89393       63.33426       83.75176
C         60.10554       62.57083       82.66786
C         62.18752       63.90206       83.15605
H         59.07372       65.18050       82.66566
H         60.68013       64.91285       85.22593
H         61.19119       62.59777       84.53132
H         60.72649       61.74996       82.25108
H         59.18854       62.11377       83.09514
H         59.81401       63.23413       81.82727
H         61.97000       64.63492       82.35609
H         62.78496       64.40383       83.94563
H         62.80042       63.08344       82.72197
N         57.57644       63.98018       84.79116
C         56.46721       63.28433       85.44075
C         55.34385       64.26176       85.78869
O         55.43999       65.43900       85.46569
C         56.03356       62.14366       84.48491
C         54.98333       61.20768       85.02804
N         53.81014       61.03387       84.37522
O         55.19872       60.58983       86.06111
H         57.36131       64.52767       83.94529
H         56.80560       62.81461       86.39108
H         56.92939       61.51708       84.27732
H         55.69837       62.58392       83.52202
H         53.61492       61.53497       83.49635
H         53.09452       60.39108       84.74557
N         54.23951       63.82603       86.45545
C         53.09083       64.64815       86.80728
C         52.82328       64.51684       88.28711
O         52.72269       63.39410       88.75945
C         51.87285       64.15491       86.00492
C         50.59075       64.85881       86.39502
C         49.48698       64.11198       86.84274
C         50.48388       66.25880       86.32126
C         48.30274       64.75318       87.21418
C         49.30083       66.89816       86.70214
C         48.20779       66.15008       87.15057
O         47.07474       66.78241       87.51625
H         54.18507       62.83595       86.72573
H         53.25789       65.71520       86.54519
H         51.75484       63.05710       86.14944
H         52.08009       64.33337       84.92974
H         49.53956       63.03216       86.90563
H         51.31551       66.85838       85.97597
H         47.46146       64.16287       87.55438
H         49.23471       67.97738       86.64854
H         46.29824       66.30198       87.83720
N         52.65384       65.61701       89.07443
C         52.37442       65.52417       90.49964
C         50.99712       66.10462       90.78178
O         50.89136       67.32139       90.85134
C         53.51636       66.22967       91.27188
C         53.45057       66.11448       92.80558
C         52.35344       66.93313       93.42301
O         52.34042       68.14647       93.28347
O         51.39612       66.33768       94.15861
H         52.70796       66.55522       88.64729
H         52.39908       64.47238       90.82001
H         53.59094       67.30003       90.97552
H         54.46115       65.73512       90.95596
H         54.40959       66.48945       93.22431
H         53.34609       65.04532       93.08932
N         49.85995       65.34955       90.90257
C         49.74145       63.91005       90.65848
C         50.52261       63.06432       91.64460
O         50.37121       63.23202       92.84674
C         48.25672       63.47840       90.70150
C         48.08529       62.00128       90.29050
C         46.65417       61.55228       90.27867
O         46.39478       60.39651       89.98637
O         45.65334       62.39947       90.58488
H         48.98606       65.86560       91.09638
H         50.09159       63.71016       89.62287
H         47.68083       64.10915       89.99055
H         47.84315       63.63916       91.72213
H         48.63366       61.34706       91.00074
H         48.50511       61.85290       89.27146
N         51.32788       62.06880       91.17900
C         52.05336       61.17442       92.04935
H         52.77602       61.74670       92.66591
H         51.34245       60.62698       92.70380
H         52.61057       60.43105       91.43836
H         51.39987       61.90856       90.16421
Ca        43.67543       60.02392       88.96014
O         42.92439       58.60073       91.48632
H         43.38378       57.72638       91.55375
H         42.67427       58.82607       92.41719
O         42.96084       62.03024       91.83119
H         43.26838       61.96586       92.77018
H         43.19480       62.95256       91.55678
O         40.84605       60.40229       89.66247
H         40.62714       60.16083       90.59721
H         40.04415       60.87797       89.33065
O         42.46624       62.86935       88.39730
H         42.26367       63.83675       88.45269
H         42.45765       62.66803       87.42776
O         45.32411       61.72630       87.15801
H         45.17574       62.54260       86.61841
H         46.30683       61.60740       87.16954

Ca 1.0



