%chk=apoCaM-CA-Ng.loop1.water3.frame152.chk
%nprocshared=20
%mem=10GB
%nosave
#b3lyp/svp scf=(tight,noincore,xqc) Test 
#IOP(5/87=12) Density=Current Pop=(MK,readradii) iop(6/33=2) iop(6/42=6)

apoCaM-CA-Ng.loop1.water3.frame152 

   0  1 
C         76.06047       60.01294       57.39368
C         76.70319       59.07729       56.41301
O         77.74839       58.51638       56.70977
H         75.04280       59.64446       57.64478
H         76.65556       60.07944       58.32881
H         75.97811       61.02468       56.94455
N         76.10555       58.84781       55.21241
C         76.63165       57.90607       54.22823
C         78.00390       58.27748       53.67662
O         78.61068       57.41957       53.05779
C         75.64315       57.71310       53.05324
C         75.41367       58.97383       52.24629
O         75.70707       59.00607       51.06463
O         74.85906       60.06481       52.80642
H         75.20663       59.31803       55.03718
H         76.73367       56.92730       54.74868
H         74.66571       57.35802       53.44382
H         76.04368       56.91705       52.38639
N         78.53093       59.52943       53.78862
C         79.82254       59.89996       53.20719
C         80.97945       59.27612       53.97261
O         80.98044       59.41431       55.18827
C         80.01864       61.43551       53.23673
C         79.01546       62.24393       52.38843
C         79.01157       61.81959       50.90696
C         78.14806       62.71046       50.00428
N         78.73567       64.03879       49.81767
H         77.96910       60.26102       54.24739
H         79.84919       59.58725       52.15565
H         81.03357       61.66719       52.84760
H         79.97628       61.80129       54.28674
H         79.32203       63.30606       52.47864
H         77.98781       62.14696       52.79845
H         78.59601       60.79256       50.84051
H         80.04526       61.81902       50.50437
H         77.11741       62.79154       50.41397
H         78.08312       62.21969       49.00732
H         78.14140       64.58135       49.15067
H         78.78415       64.56218       50.71900
H         79.69460       63.94883       49.40767
N         82.06611       58.66860       53.39230
C         82.34089       58.42660       51.97062
C         82.23754       59.68781       51.11250
O         81.40185       59.73370       50.22036
C         81.48604       57.27875       51.42184
C         81.61293       56.04368       52.25514
O         80.51188       55.49271       52.77991
O         82.69920       55.52506       52.45189
H         82.81557       58.36783       54.03647
H         83.38800       58.05810       51.88575
H         81.83500       57.04632       50.39816
H         80.42407       57.56638       51.36433
N         83.05202       60.76284       51.29311
C         84.17002       60.73164       52.21423
C         84.90313       62.05191       52.33674
O         84.43949       63.06231       51.82786
H         82.89023       61.59672       50.70756
H         84.86710       59.94730       51.85611
H         83.81716       60.47882       53.23386
N         86.05373       62.14349       53.06257
C         86.73773       60.97438       53.61023
C         87.45845       60.20715       52.50090
O         87.48758       60.65683       51.36281
C         87.71662       61.38995       54.73366
C         88.84443       62.27111       54.26728
O         88.97919       63.51215       54.77102
O         89.65773       61.85994       53.45507
H         86.46473       63.07903       53.20697
H         85.98949       60.31521       54.10297
H         88.15153       60.48632       55.21146
H         87.13493       61.92512       55.51618
N         88.10470       59.04826       52.78997
C         88.93146       58.31723       51.84507
C         88.17954       57.74606       50.66556
O         88.63481       57.89897       49.54092
H         88.05668       58.68262       53.75286
H         89.37170       57.45149       52.38574
H         89.77372       58.95579       51.49930
N         87.06477       56.99381       50.86618
C         86.43368       56.18107       49.82287
C         85.97688       56.98728       48.60452
O         85.87091       58.20388       48.67059
C         85.24652       55.38215       50.43231
C         85.68704       54.40545       51.53079
O         84.58766       54.63311       49.44857
H         86.70504       56.94384       51.83007
H         87.20444       55.46630       49.45740
H         84.55072       56.13670       50.86849
H         83.61190       54.76811       49.58100
H         86.38561       53.65210       51.10953
H         86.18022       54.91171       52.38271
H         84.79860       53.87397       51.93096
N         85.72799       56.32543       47.43113
C         85.27246       56.95002       46.18509
C         83.91552       56.40171       45.73665
O         83.38196       56.89872       44.75415
C         86.32912       56.77387       45.05251
C         86.59019       55.27642       44.72600
C         87.62118       57.51968       45.42460
C         87.50776       55.05424       43.52435
H         85.88566       55.30766       47.42076
H         85.12213       58.04073       46.34622
H         85.92305       57.26185       44.13751
H         85.62402       54.78760       44.48262
H         87.03531       54.75545       45.59886
H         88.09334       57.07233       46.32421
H         88.34777       57.50301       44.58796
H         87.39395       58.58738       45.63195
H         88.52650       55.44636       43.71536
H         87.59885       53.96368       43.33309
H         87.08330       55.53823       42.61982
N         83.28216       55.41250       46.42730
C         81.93889       54.92769       46.14720
C         81.04749       55.41263       47.27988
O         81.54856       56.04821       48.19764
C         81.96069       53.37299       46.05713
C         82.87439       52.87179       44.93819
O         80.67156       52.86796       45.82381
H         83.72553       55.01303       47.25680
H         81.54511       55.35725       45.19954
H         82.34839       52.98661       47.03159
H         80.61105       51.98886       46.28264
H         82.86952       51.76032       44.92728
H         82.51330       53.23785       43.95370
H         83.91767       53.20860       45.09870
N         79.71321       55.15975       47.29371
C         78.85467       55.60422       48.38952
C         77.59976       54.73438       48.46655
O         77.37053       53.93401       47.56845
C         78.61654       57.13739       48.22821
C         77.86923       57.80353       49.37385
O         77.92655       57.39989       47.03251
H         79.30791       54.63718       46.50661
H         79.39065       55.40266       49.34452
H         79.60845       57.64788       48.21214
H         78.60549       57.48376       46.31315
H         78.36706       57.59784       50.34178
H         77.85103       58.90361       49.21708
H         76.82205       57.45893       49.39758
N         76.75736       54.79680       49.53787
C         75.56733       53.95901       49.64362
C         75.43923       53.25585       50.99042
O         74.40530       52.63458       51.19828
C         74.31883       54.78168       49.26618
C         73.99178       55.93376       50.21493
C         72.70272       56.71711       49.88033
C         72.69359       57.53802       48.56913
N         72.34992       56.76109       47.37262
H         76.94296       55.47315       50.29107
H         75.59000       53.15123       48.87922
H         73.43976       54.10272       49.21082
H         74.53292       55.17921       48.26042
H         74.84011       56.64135       50.24521
H         73.85801       55.51187       51.23469
H         72.61450       57.45827       50.70467
H         71.80367       56.06488       49.93098
H         73.65788       58.07668       48.43903
H         71.89735       58.30793       48.67911
H         71.41161       56.31551       47.49340
H         72.30000       57.41288       46.55623
H         73.04786       56.03243       47.13629
N         76.43139       53.24667       51.93794
C         76.23814       52.55293       53.20968
C         75.22470       53.29816       54.05312
O         75.45870       54.44863       54.39846
C         77.54259       52.34249       54.01749
C         78.50005       51.35541       53.31888
C         79.52970       50.79917       54.27625
O         80.48470       51.58081       54.80809
O         79.50513       49.61405       54.56756
H         77.33849       53.69644       51.74614
H         75.85354       51.53007       52.99932
H         77.23330       51.86406       54.97459
H         78.04594       53.30241       54.26626
H         78.98242       51.82714       52.43544
H         77.90228       50.49035       52.95997
N         74.06923       52.68643       54.43174
C         73.07688       53.34598       55.25042
H         72.22645       52.65617       55.43865
H         73.52144       53.63430       56.22669
H         72.69525       54.25027       54.73137
H         73.88673       51.71533       54.13674
Ca        80.71607       53.61477       53.94779
O         82.66474       51.94135       52.12321
H         82.24546       51.06307       51.94111
H         83.32753       51.75709       52.83553
O         82.15778       53.17529       57.23013
H         81.75548       52.51603       57.84994
H         83.02852       53.40408       57.64255
O         79.80764       55.68397       56.04049
H         79.91245       56.58541       56.43497
H         79.42043       55.85186       55.14575

Ca 1.0



