%chk=apoCaM-CA-Ng.loop2.water3.frame775.chk
%nprocshared=20
%mem=10GB
%nosave
#b3lyp/svp scf=(tight,noincore,xqc) Test 
#IOP(5/87=12) Density=Current Pop=(MK,readradii) iop(6/33=2) iop(6/42=6)

apoCaM-CA-Ng.loop2.water3.frame775 

   -2  1 
C         86.72347      102.97799        2.13181
C         87.87810      103.59042        2.87360
O         87.90326      104.79854        3.05935
H         85.99296      103.75357        1.81757
H         87.09475      102.45308        1.22562
H         86.20653      102.24440        2.78568
N         88.89086      102.79691        3.31660
C         90.06013      103.30254        4.02915
C         89.67503      103.88015        5.38387
O         89.04680      103.18779        6.17334
C         91.08442      102.16800        4.22959
C         92.33096      102.66132        4.91395
O         93.01040      103.53719        4.40192
O         92.69777      102.14277        6.10108
H         88.83471      101.78696        3.10844
H         90.55308      104.07696        3.39847
H         91.37052      101.74995        3.23967
H         90.62699      101.35304        4.83217
N         90.08417      105.13273        5.73882
C         89.80360      105.72939        7.04914
C         88.31563      105.99263        7.20047
O         87.62455      105.88870        6.19495
C         90.56248      107.06414        7.14243
H         90.65110      105.66426        5.05894
H         90.16719      105.03590        7.83669
H         90.20522      107.76089        6.35146
H         90.43979      107.56591        8.11508
H         91.64857      106.89141        6.99175
N         87.69735      106.39146        8.35513
C         88.23739      106.49547        9.72333
C         88.56600      105.12768       10.32715
O         88.37495      104.11190        9.67285
C         87.21556      107.24176       10.65694
C         85.85229      106.58765       10.76886
O         85.05579      106.59362        9.68560
O         85.47257      106.08695       11.81539
H         86.71745      106.64637        8.21259
H         89.15163      107.11191        9.72932
H         87.06602      108.27678       10.28315
H         87.64658      107.34913       11.67192
N         88.99696      105.03266       11.62414
C         89.09718      103.76354       12.32508
C         90.37263      103.01105       12.02903
O         91.25660      103.56254       11.38909
H         89.12482      105.88636       12.18467
H         88.18916      103.17718       12.09927
H         89.10262      103.95139       13.42166
N         90.58809      101.74900       12.50734
C         89.56717      100.92802       13.16259
C         88.49027      100.58467       12.14734
O         88.83291      100.08711       11.08176
C         90.18258       99.61356       13.69288
C         91.18163       99.86583       14.79637
N         92.47414       99.48654       14.66525
O         90.81414      100.40928       15.82776
H         91.51928      101.33164       12.34654
H         89.13062      101.46647       14.03364
H         90.65909       99.05952       12.85409
H         89.37759       98.96996       14.11164
H         92.80716       99.02554       13.80639
H         93.14722       99.65593       15.42773
N         87.16879      100.81767       12.39574
C         86.16339      100.55811       11.37662
C         84.75305      100.72174       11.89152
O         84.35368       99.95297       12.75586
H         86.88290      101.19285       13.31390
H         86.25707       99.51188       11.01283
H         86.35149      101.24165       10.51969
N         83.93109      101.68904       11.39026
C         82.52755      101.83951       11.77319
C         81.62530      101.85536       10.54437
O         82.12205      101.88319        9.42431
C         82.33595      103.13968       12.59044
C         83.08201      103.06487       13.92753
O         82.78964      104.24100       11.84469
H         84.31858      102.35733       10.70838
H         82.20395      100.98044       12.40193
H         81.25199      103.26186       12.81660
H         82.44608      105.05699       12.29400
H         82.70742      102.20320       14.52131
H         84.17476      102.94979       13.77049
H         82.90271      103.99165       14.51231
N         80.26875      101.84139       10.69598
C         79.31494      101.94612        9.59595
C         78.44262      103.16217        9.84543
O         77.75856      103.22498       10.85908
C         78.45517      100.65710        9.46957
C         77.30686      100.77588        8.42158
C         79.34848       99.44255        9.16197
C         77.74677      101.04382        6.98081
H         79.88345      101.76724       11.65105
H         79.85546      102.07526        8.63169
H         77.96247      100.47168       10.44955
H         76.61452      101.59207        8.72008
H         76.71858       99.83307        8.43072
H         78.73296       98.52058        9.09538
H         79.89656       99.57784        8.20553
H         80.09732       99.29544        9.96753
H         78.26909      102.01816        6.90355
H         78.39434      100.22814        6.60138
H         76.85288      101.08844        6.32481
N         78.42517      104.16721        8.93605
C         77.64522      105.38963        9.04938
C         76.64792      105.45081        7.90862
O         75.48250      105.70234        8.17260
C         78.57440      106.61311        9.03620
C         79.53896      106.58896       10.19423
O         79.49865      107.56020       11.12591
O         80.36542      105.69596       10.29447
H         79.01614      104.06072        8.10670
H         77.07930      105.42352       10.00865
H         77.95036      107.53061        9.11378
H         79.14036      106.65939        8.08356
N         77.03490      105.18335        6.62177
C         76.12824      105.10747        5.47472
C         76.96285      104.82877        4.21513
O         76.75668      103.80782        3.57285
C         75.04385      104.01743        5.74994
C         73.94474      103.85468        4.72519
C         73.16583      104.95147        4.31250
C         73.63164      102.57307        4.23639
C         72.10047      104.76669        3.42367
C         72.55751      102.39205        3.35961
C         71.79320      103.48769        2.95253
H         78.02945      104.98387        6.45098
H         75.61923      106.08557        5.34900
H         74.49437      104.27293        6.67188
H         75.54635      103.04599        5.93989
H         73.37132      105.94676        4.68329
H         74.19744      101.70725        4.55738
H         71.50273      105.61319        3.11056
H         72.30964      101.39939        3.00576
H         70.95786      103.34395        2.27882
N         77.94856      105.69647        3.80457
C         78.78066      105.51255        2.61946
C         79.58275      104.22742        2.56792
O         79.97775      103.84907        1.47309
C         79.76858      106.68270        2.68609
C         78.93084      107.75953        3.32659
C         78.21828      106.97894        4.42690
H         78.10691      105.58018        1.73525
H         80.57713      106.44359        3.41825
H         80.24091      106.94574        1.71552
H         79.49110      108.64962        3.68261
H         78.17687      108.08300        2.57279
H         78.87852      106.82102        5.30688
H         77.30219      107.53859        4.70889
N         79.91933      103.53097        3.69522
C         80.67362      102.28431        3.62559
C         79.86340      101.28072        2.83036
O         80.35614      100.78123        1.82823
C         81.01318      101.67170        5.00908
C         82.16949      102.32394        5.79090
C         81.91998      103.58239        6.56836
O         82.96133      104.07712        7.25744
O         80.83615      104.13116        6.61269
H         79.60870      103.88352        4.60753
H         81.64175      102.45611        3.10101
H         81.40575      100.65400        4.78344
H         80.12251      101.53765        5.64564
H         83.02938      102.48137        5.10482
H         82.48868      101.58824        6.56126
N         78.59282      100.97059        3.21019
C         77.74123      100.05701        2.47842
H         76.84470      100.60527        2.11989
H         78.25310       99.61254        1.59898
H         77.41871       99.23664        3.15154
H         78.19466      101.42418        4.04564
Ca        83.19520      105.58755        8.92031
O         84.63155      106.36102        6.34196
H         85.00910      105.45829        6.19058
H         83.73810      106.32841        5.91717
O         85.39328      103.60417        8.68112
H         85.81063      103.84574        9.54520
H         86.14364      103.56398        8.03794
O         81.60856      107.87242        7.71156
H         82.34482      108.14372        7.10869
H         81.38814      106.95000        7.42770

Ca 1.0



