%chk=apoCaM-CA-Ng.loop4.water5.frame926.chk
%nprocshared=20
%mem=10GB
%nosave
#b3lyp/svp scf=(tight,noincore,xqc) Test 
#IOP(5/87=12) Density=Current Pop=(MK,readradii) iop(6/33=2) iop(6/42=6)

apoCaM-CA-Ng.loop4.water5.frame926 

   -3  1 
C        -15.55542       -1.66221        4.07772
C        -16.85530       -2.27947        4.49284
O        -17.89105       -1.65210        4.32309
H        -15.06640       -2.30350        3.31449
H        -15.72300       -0.65451        3.63994
H        -14.88979       -1.56636        4.96032
N        -16.87407       -3.53294        5.03274
C        -18.09232       -4.22645        5.43853
C        -19.01056       -4.37005        4.23889
O        -20.11989       -3.85320        4.24346
C        -18.76810       -3.52247        6.63750
C        -17.84974       -3.45567        7.82613
O        -17.55736       -2.37703        8.31502
O        -17.35810       -4.58650        8.36859
H        -15.97945       -4.03569        5.13953
H        -17.82560       -5.25322        5.77789
H        -19.67034       -4.09908        6.93545
H        -19.09374       -2.49767        6.35956
N        -18.58055       -5.07291        3.15543
C        -19.35167       -5.20939        1.92679
C        -20.12281       -6.52443        2.00142
O        -19.46950       -7.55556        2.07905
C        -18.38427       -5.15803        0.69828
C        -17.57456       -3.83062        0.70488
C        -19.14935       -5.32597       -0.62688
C        -16.54303       -3.72273       -0.42040
H        -17.66194       -5.54156        3.20971
H        -20.02979       -4.34337        1.81824
H        -17.66971       -6.00739        0.78522
H        -17.01241       -3.74844        1.65933
H        -18.26782       -2.96372        0.63986
H        -19.74705       -6.26120       -0.62477
H        -19.81263       -4.45487       -0.80231
H        -18.45124       -5.40850       -1.48322
H        -17.02945       -3.69819       -1.41635
H        -15.97473       -2.77550       -0.30714
H        -15.83048       -4.57313       -0.37459
N        -21.49045       -6.62267        2.00236
C        -22.43504       -5.51018        1.93456
C        -23.70510       -5.87172        2.68693
O        -24.38446       -6.80386        2.27667
C        -22.75940       -5.21374        0.45424
C        -23.67540       -4.04105        0.23273
O        -24.14352       -3.31726        1.26450
O        -23.99102       -3.73299       -0.90522
H        -21.88770       -7.57505        2.04637
H        -22.00779       -4.61222        2.41909
H        -23.21547       -6.11698       -0.00789
H        -21.82242       -4.99838       -0.08159
N        -24.08307       -5.17971        3.80298
C        -25.29870       -5.48969        4.54209
C        -26.23998       -4.31348        4.71184
O        -27.31478       -4.54545        5.24816
H        -23.46834       -4.43397        4.16230
H        -25.02291       -5.85396        5.55481
H        -25.86904       -6.30095        4.04203
N        -25.91593       -3.03136        4.35390
C        -26.80955       -1.90237        4.61467
C        -27.01998       -0.97132        3.42658
O        -28.02577       -0.27591        3.43828
C        -26.36064       -1.12273        5.87311
C        -24.96561       -0.55471        5.80653
O        -23.90177       -1.36738        5.66040
O        -24.78481        0.64299        5.95458
H        -24.98025       -2.83821        3.98013
H        -27.82262       -2.28989        4.86405
H        -26.39420       -1.81222        6.74321
H        -27.08767       -0.30207        6.06789
N        -26.13383       -0.84674        2.39230
C        -26.33760        0.12167        1.31945
C        -26.25850        1.56550        1.80306
O        -26.60276        2.45785        1.04236
H        -25.28666       -1.42356        2.35971
H        -27.33211       -0.07125        0.86200
H        -25.56761       -0.01170        0.52875
N        -25.78000        1.86678        3.04493
C        -25.68817        3.19752        3.63092
C        -24.79473        4.12009        2.82309
O        -25.19197        5.23664        2.51732
C        -27.08696        3.78940        3.92680
C        -27.86002        2.91354        4.92650
C        -29.18944        3.51881        5.29351
N        -30.34394        2.85069        5.06134
O        -29.22430        4.61879        5.82475
H        -25.42850        1.10435        3.63201
H        -25.17695        3.09302        4.61443
H        -27.67017        3.90511        2.98739
H        -26.95466        4.79489        4.38402
H        -27.26402        2.79548        5.85714
H        -28.01377        1.91081        4.49004
H        -30.33937        1.91797        4.62325
H        -31.24935        3.26558        5.32739
N        -23.53643        3.71599        2.48491
C        -22.55117        4.59968        1.86159
C        -21.26473        4.70256        2.67383
O        -20.51493        5.63387        2.41108
C        -22.21723        4.17512        0.40563
C        -21.69447        2.73119        0.31628
C        -23.42933        4.35775       -0.51390
H        -23.27667        2.74248        2.69453
H        -22.95772        5.63508        1.82055
H        -21.42158        4.85351        0.02185
H        -21.40850        2.49459       -0.73029
H        -20.79578        2.59700        0.95277
H        -22.47179        2.00476        0.63417
H        -23.15161        4.10948       -1.56081
H        -24.27162        3.70739       -0.19990
H        -23.76279        5.41779       -0.49336
N        -20.89034        3.76826        3.60277
C        -19.61148        3.82320        4.30775
C        -19.86053        3.75437        5.81494
O        -20.99447        3.51231        6.21157
C        -18.74208        2.65850        3.76681
C        -17.24826        2.86581        3.87120
N        -16.48850        2.93302        2.74913
O        -16.71129        2.95913        4.95962
H        -21.47957        2.94397        3.77722
H        -19.10440        4.78254        4.06737
H        -18.95667        2.57146        2.67952
H        -19.05251        1.69558        4.22767
H        -16.90957        2.84517        1.81193
H        -15.46913        3.07067        2.81176
N        -18.87396        4.00402        6.72348
C        -19.11999        3.96127        8.16943
C        -17.93794        4.53393        8.95344
O        -16.87788        4.73810        8.37713
C        -19.36996        2.49432        8.61524
C        -20.08295        2.36810        9.93782
C        -21.47845        2.52798        9.98234
C        -19.39024        2.05267       11.11840
C        -22.17167        2.37070       11.18470
C        -20.08445        1.91696       12.32663
C        -21.47594        2.06812       12.36321
O        -22.13315        1.91500       13.53079
H        -17.96223        4.30750        6.36499
H        -20.00852        4.60478        8.35759
H        -18.39697        1.95768        8.63078
H        -19.99025        1.93766        7.88159
H        -22.03265        2.75158        9.07866
H        -18.31506        1.92525       11.10642
H        -23.24921        2.47975       11.19721
H        -19.54163        1.68685       13.23465
H        -23.09585        1.99752       13.59378
N        -18.05577        4.84825       10.27606
C        -16.94275        5.36942       11.06539
C        -16.79440        4.55161       12.33831
O        -17.72845        4.57298       13.12913
C        -17.19707        6.84577       11.43438
C        -17.35118        7.73562       10.19270
C        -17.57555        9.16678       10.58737
O        -18.64953        9.50432       11.32734
O        -16.79241       10.03258       10.23133
H        -18.97581        4.75331       10.73186
H        -16.01243        5.33848       10.47618
H        -16.33686        7.21662       12.03607
H        -18.11987        6.92481       12.05153
H        -18.22202        7.40146        9.58915
H        -16.43503        7.65753        9.56663
N        -15.70112        3.79575       12.65998
C        -14.51397        3.56215       11.83810
C        -13.73026        4.83386       11.57093
O        -13.31314        5.49991       12.50794
C        -13.60868        2.51675       12.54394
C        -12.27454        2.21680       11.83697
C        -12.44014        1.77845       10.41108
O        -13.14774        0.67598       10.10385
O        -11.91363        2.42050        9.51698
H        -15.74864        3.30176       13.56643
H        -14.83825        3.11198       10.87443
H        -14.18496        1.57034       12.64402
H        -13.36134        2.87165       13.56957
H        -11.74668        1.41740       12.40037
H        -11.63382        3.12504       11.86693
N        -13.45494        5.18825       10.28299
C        -12.66285        6.33559        9.90031
H        -11.77918        5.98605        9.32362
H        -13.27048        6.99761        9.24878
H        -12.30721        6.91511       10.77584
H        -13.80772        4.59925        9.51805
Ca       -13.29207        0.08168        7.92379
O        -16.40631        0.73765        7.36527
H        -16.35207       -0.24840        7.32247
H        -16.92720        0.98810        6.56290
O        -11.34963        2.12339        6.37084
H        -10.64972        2.32196        7.04219
H        -11.18464        2.77135        5.64075
O        -14.58700       -2.09834        9.61296
H        -13.89525       -2.80036        9.52074
H        -14.91210       -1.95227        8.68948
O        -14.04082        1.21782        4.90777
H        -14.39892        2.04197        5.31779
H        -13.38200        1.54571        4.24672
O        -14.22587        2.93796        7.66851
H        -15.06698        2.90542        8.18833
H        -14.24385        3.81650        7.21245

Ca 1.0



