%chk=apoCaM-CA-Ng.loop2.water3.frame557.chk
%nprocshared=20
%mem=10GB
%nosave
#b3lyp/svp scf=(tight,noincore,xqc) Test 
#IOP(5/87=12) Density=Current Pop=(MK,readradii) iop(6/33=2) iop(6/42=6)

apoCaM-CA-Ng.loop2.water3.frame557 

   -2  1 
C         54.54020       32.19873       -8.03300
C         54.32118       33.22055       -9.11024
O         54.20786       34.39531       -8.79031
H         55.47608       32.43262       -7.48376
H         53.68690       32.22033       -7.32264
H         54.62280       31.17474       -8.45388
N         54.23920       32.84590      -10.41872
C         54.01121       33.80139      -11.49591
C         55.16545       34.78425      -11.58010
O         56.28459       34.37163      -11.84764
C         53.83666       33.06204      -12.83923
C         53.56491       34.01165      -13.97394
O         54.32379       34.05954      -14.92894
O         52.48191       34.81162      -13.94339
H         54.31995       31.84329      -10.64971
H         53.06071       34.34067      -11.28278
H         52.97971       32.35840      -12.76045
H         54.75168       32.46772      -13.05924
N         54.95063       36.11377      -11.37526
C         56.00828       37.11550      -11.47121
C         57.07913       36.90820      -10.40391
O         56.76166       36.33937       -9.36788
C         55.39348       38.51379      -11.29496
H         53.98830       36.42444      -11.16845
H         56.44746       37.04564      -12.48509
H         54.62155       38.68725      -12.07411
H         54.91360       38.59672      -10.29548
H         56.14548       39.32086      -11.37599
N         58.35129       37.40301      -10.51521
C         58.87966       38.06209      -11.71156
C         59.06962       37.06812      -12.84805
O         59.14568       35.87633      -12.58983
C         60.18480       38.83762      -11.41483
C         61.37018       37.97848      -11.04743
O         61.34791       37.19101       -9.95548
O         62.38444       38.02914      -11.72339
H         58.95918       37.31056       -9.68921
H         58.15040       38.83100      -12.02473
H         59.99373       39.55159      -10.58429
H         60.44823       39.43607      -12.31484
N         59.12463       37.49065      -14.14661
C         59.27155       36.57313      -15.27300
C         58.11878       35.58497      -15.37690
O         57.19636       35.66472      -14.57534
H         59.05201       38.49959      -14.34614
H         60.22559       36.01557      -15.15410
H         59.31812       37.16006      -16.21649
N         58.06807       34.59261      -16.31048
C         59.04539       34.35960      -17.37109
C         59.77160       33.03163      -17.18130
O         60.62046       32.72818      -18.01332
C         58.28185       34.35987      -18.72057
C         59.15986       34.07132      -19.91759
N         58.96426       32.95290      -20.65921
O         60.06499       34.83922      -20.20550
H         57.26351       33.94672      -16.27166
H         59.81738       35.15633      -17.38599
H         57.78605       35.34233      -18.87257
H         57.48535       33.58508      -18.66496
H         58.21762       32.28246      -20.42245
H         59.57261       32.74209      -21.46417
N         59.52516       32.18164      -16.14212
C         60.13765       30.86535      -16.07558
C         61.39680       30.84086      -15.24750
O         61.49365       29.99830      -14.36825
H         58.81467       32.41343      -15.43324
H         60.39884       30.51488      -17.09696
H         59.39614       30.13081      -15.69148
N         62.42670       31.70255      -15.50105
C         63.73302       31.61853      -14.84591
C         63.59273       31.61725      -13.33095
O         62.66413       32.21485      -12.80678
C         64.68286       32.72770      -15.36738
C         66.11088       32.57466      -14.83166
O         64.73000       32.66162      -16.77130
H         62.29108       32.42532      -16.22026
H         64.17002       30.63792      -15.14074
H         64.26903       33.71401      -15.05052
H         64.97200       33.56746      -17.09885
H         66.75643       33.37504      -15.25196
H         66.13622       32.65835      -13.72651
H         66.52997       31.59113      -15.13679
N         64.43624       30.85145      -12.58194
C         64.23183       30.55458      -11.16990
C         65.30727       31.20914      -10.32770
O         66.48439       30.95045      -10.53565
C         64.19614       29.00438      -10.98274
C         64.19086       28.60389       -9.48362
C         62.97600       28.43308      -11.73252
C         64.15629       27.09179       -9.24581
H         65.23173       30.39088      -13.05098
H         63.25377       30.95360      -10.82611
H         65.11584       28.56727      -11.43237
H         63.34121       29.07903       -8.96146
H         65.12493       28.97500       -9.01122
H         63.02352       28.69653      -12.80711
H         62.94536       27.32715      -11.69023
H         62.03487       28.83717      -11.30673
H         65.00593       26.59955       -9.76517
H         64.23802       26.88669       -8.15817
H         63.20195       26.64785       -9.59463
N         64.93733       32.03972       -9.30697
C         65.86689       32.66200       -8.37489
C         65.66541       32.15683       -6.94960
O         66.39090       32.62330       -6.08083
C         65.76838       34.20291       -8.44094
C         64.45202       34.76457       -7.97206
O         63.42097       34.51567       -8.56944
O         64.41157       35.57811       -6.90027
H         63.93444       32.21056       -9.15609
H         66.91198       32.40313       -8.65343
H         65.96426       34.54188       -9.48082
H         66.56986       34.62634       -7.79640
N         64.77056       31.16685       -6.63113
C         64.72463       30.57091       -5.29973
C         63.27761       30.31233       -4.88226
O         62.93877       29.17051       -4.60946
C         65.63239       29.31177       -5.34921
C         66.17186       28.83131       -4.01576
C         67.49807       29.15867       -3.66420
C         65.41745       28.03552       -3.13486
C         68.05117       28.71161       -2.46373
C         65.98053       27.58280       -1.93440
C         67.29418       27.92183       -1.59928
H         64.22260       30.71068       -7.37291
H         65.18248       31.26586       -4.56197
H         66.52706       29.62773       -5.93050
H         65.18873       28.48439       -5.94495
H         68.11011       29.76610       -4.32016
H         64.40891       27.73782       -3.37241
H         69.07011       28.97453       -2.20887
H         65.40122       26.96074       -1.26475
H         67.72911       27.56903       -0.67305
N         62.34077       31.31490       -4.82087
C         60.95645       31.11854       -4.39862
C         60.16634       30.07424       -5.17214
O         59.07178       29.74326       -4.73716
C         60.30734       32.48627       -4.64949
C         61.45501       33.43257       -4.39481
C         62.61644       32.71310       -5.07966
H         60.98747       30.84781       -3.31907
H         60.06809       32.58292       -5.73591
H         59.37890       32.67719       -4.06945
H         61.29438       34.47791       -4.73507
H         61.63665       33.43451       -3.29612
H         62.61922       32.87279       -6.18010
H         63.56464       33.06932       -4.62461
N         60.61289       29.56246       -6.35462
C         59.86018       28.57762       -7.11145
C         60.09169       27.21006       -6.50535
O         59.13217       26.55538       -6.12186
C         60.24545       28.54328       -8.60945
C         59.82348       29.77255       -9.44584
C         60.65963       31.02319       -9.37695
O         60.33205       32.03430      -10.20151
O         61.64515       31.11948       -8.66891
H         61.50892       29.88251       -6.73261
H         58.77409       28.82433       -7.08427
H         59.66172       27.69927       -9.04023
H         61.31060       28.29988       -8.76624
H         58.76451       30.02460       -9.22345
H         59.87464       29.46387      -10.51080
N         61.35479       26.71121       -6.39649
C         61.62359       25.39475       -5.86193
H         62.71928       25.21121       -5.84295
H         61.22991       25.31261       -4.82696
H         61.14709       24.62390       -6.50449
H         62.15567       27.28448       -6.70235
Ca        61.49591       33.94927      -10.46551
O         63.22718       35.38119      -12.80557
H         64.19722       35.20461      -12.89466
H         63.04834       36.11265      -13.44861
O         58.25718       33.84387       -9.80878
H         58.67680       34.39208      -10.51787
H         57.95105       33.02803      -10.27916
O         59.83491       32.98481      -13.04191
H         58.86973       33.19487      -13.10294
H         59.86447       32.00720      -12.88844

Ca 1.0



