%chk=apoCaM-CA-Ng.loop1.water1.frame930.chk
%nprocshared=20
%mem=10GB
%nosave
#b3lyp/svp scf=(tight,noincore,xqc) Test 
#IOP(5/87=12) Density=Current Pop=(MK,readradii) iop(6/33=2) iop(6/42=6)

apoCaM-CA-Ng.loop1.water1.frame930 

   0  1 
C         10.67029       17.70603       85.86971
C         11.55119       16.76420       86.63212
O         11.95930       15.75100       86.08195
H          9.69155       17.80407       86.38383
H         11.15757       18.70194       85.81355
H         10.49918       17.33362       84.83707
N         11.90170       17.04967       87.91706
C         12.78172       16.18944       88.69963
C         12.19882       14.78278       88.83839
O         11.14495       14.60912       89.42633
C         13.18822       16.85075       90.04547
C         12.10260       17.38130       90.95760
O         10.79933       17.35447       90.61699
O         12.42868       17.92032       92.00383
H         11.55158       17.92831       88.32729
H         13.73674       16.09554       88.13831
H         13.82400       17.72865       89.79725
H         13.81873       16.13044       90.61106
N         12.83841       13.72902       88.24802
C         12.33597       12.35573       88.23748
C         12.26082       11.78456       89.63938
O         13.27010       11.76329       90.33050
C         13.24047       11.47961       87.32790
C         12.89600        9.97470       87.28244
C         11.43603        9.66850       86.91689
C         11.18277        8.15446       86.87994
N          9.75174        7.86577       86.78050
H         13.71468       13.92258       87.73882
H         11.32353       12.35533       87.77922
H         14.29789       11.56049       87.66560
H         13.18331       11.88992       86.29560
H         13.10890        9.52943       88.27885
H         13.57177        9.49072       86.54323
H         11.16528       10.12133       85.93886
H         10.78068       10.09796       87.69059
H         11.56916        7.68272       87.81076
H         11.72457        7.71128       86.01521
H          9.61328        6.83123       86.72107
H          9.26187        8.21461       87.63753
H          9.34181        8.32030       85.93337
N         11.08877       11.24662       90.09365
C         10.93426       10.62396       91.40444
C         10.72377        9.12128       91.24713
O         10.50094        8.67765       90.12978
C          9.70663       11.24853       92.10726
C          9.81838       12.74109       92.15720
O          8.92050       13.50785       91.51069
O         10.75163       13.26867       92.73989
H         10.26510       11.24895       89.47390
H         11.86009       10.78942       91.99404
H          9.57695       10.85487       93.13481
H          8.79246       10.98757       91.52632
N         10.77602        8.23877       92.28798
C         11.14228        8.55934       93.65648
C         12.34939        7.73995       94.04312
O         13.37978        7.86184       93.39594
H         10.58014        7.24581       92.08515
H         10.28191        8.32582       94.31908
H         11.39272        9.62660       93.79648
N         12.28361        6.87090       95.09020
C         13.37844        5.99909       95.50001
C         12.89404        4.56781       95.40646
O         11.88287        4.24354       96.01604
C         13.81082        6.35801       96.93566
C         14.98101        5.55401       97.45147
O         15.51682        4.69391       96.76945
O         15.45159        5.79926       98.68850
H         11.40232        6.81166       95.62401
H         14.26404        6.13766       94.84067
H         12.95263        6.22524       97.62906
H         14.10965        7.42851       96.95170
N         13.55805        3.65197       94.64475
C         13.06092        2.29865       94.46898
C         11.80802        2.25684       93.61804
O         11.23083        1.18269       93.50523
H         14.43896        3.91402       94.17847
H         12.86962        1.85293       95.46993
H         13.82563        1.67592       93.95781
N         11.34660        3.36062       92.95548
C         10.15501        3.36427       92.11887
C          9.15734        4.37277       92.66925
O          9.50970        5.13906       93.56055
C         10.59359        3.64882       90.65543
C          9.50230        3.44813       89.60487
O         11.10246        4.95451       90.53580
H         11.86705        4.24824       93.01756
H          9.67488        2.36138       92.15436
H         11.38101        2.90076       90.39462
H         12.07948        4.91075       90.70321
H          8.69866        4.19999       89.70434
H          9.94110        3.57178       88.59167
H          9.08105        2.42243       89.67843
N          7.87154        4.39085       92.22938
C          6.85585        5.29651       92.74984
C          5.85790        4.48290       93.56061
O          5.72740        4.77275       94.74163
C          6.28826        6.23367       91.63491
C          5.66008        5.48108       90.43195
C          7.41981        7.18398       91.17788
C          5.10087        6.40304       89.34392
H          7.58065        3.68742       91.53555
H          7.30547        5.99716       93.49211
H          5.50169        6.87018       92.09844
H          4.81257        4.86808       90.79244
H          6.40886        4.81845       89.95319
H          7.04985        7.96154       90.48091
H          7.83723        7.73345       92.04942
H          8.24293        6.62127       90.68885
H          4.63338        5.78795       88.54639
H          4.33349        7.08420       89.76714
H          5.90264        6.99949       88.86215
N          5.19690        3.39846       93.04863
C          4.40310        2.50521       93.89174
C          2.94431        2.52359       93.48562
O          2.61047        2.12160       92.38027
C          4.96318        1.06554       93.83584
C          6.41021        1.00562       94.33866
O          4.16590        0.22986       94.63699
H          5.31268        3.14685       92.05792
H          4.46080        2.82552       94.95419
H          4.92924        0.71737       92.77589
H          4.30397       -0.69884       94.31390
H          6.46543        1.35116       95.39332
H          6.78126       -0.03999       94.28902
H          7.07403        1.63928       93.71384
N          2.01670        2.98761       94.37055
C          0.58039        2.99230       94.12159
C         -0.10835        3.89710       95.13018
O         -0.81175        4.80265       94.70255
C         -0.00731        1.55520       94.14287
C         -1.50183        1.56440       93.78006
O          0.17517        0.97278       95.40798
H          2.36176        3.37997       95.25883
H          0.39720        3.42517       93.11159
H          0.52770        0.94778       93.37849
H         -0.03492        0.00641       95.31555
H         -2.08952        2.14948       94.51928
H         -1.64807        2.00832       92.77206
H         -1.89952        0.52778       93.76384
N          0.09013        3.75433       96.47585
C         -0.52517        4.64075       97.45105
C          0.50586        5.60554       98.00117
O          1.49605        5.17710       98.57884
C         -1.19169        3.86054       98.60107
C         -2.27455        2.88667       98.10916
C         -3.18357        2.38832       99.25041
C         -2.48885        1.61937      100.38882
N         -1.92056        0.34951       99.93891
H          0.74452        3.03632       96.82233
H         -1.32867        5.23848       96.96844
H         -1.66578        4.61674       99.26611
H         -0.43165        3.30280       99.19080
H         -1.80550        2.03986       97.56319
H         -2.93746        3.42369       97.39665
H         -3.97946        1.74485       98.81707
H         -3.68078        3.27676       99.69778
H         -3.25519        1.40632      101.16755
H         -1.70232        2.24410      100.86422
H         -2.66708       -0.24441       99.50974
H         -1.15141        0.51315       99.25177
H         -1.52900       -0.15559      100.76701
N          0.29817        6.94719       97.87817
C          1.14915        7.95758       98.48695
C          2.35249        8.29332       97.60702
O          3.46095        8.14110       98.10022
C          0.28627        9.17172       98.89764
C          1.07854       10.25434       99.63855
C          0.16086       11.36095      100.07553
O          0.33160       12.49903       99.66930
O         -0.85614       11.10176      100.92064
H         -0.57686        7.26347       97.43263
H          1.53067        7.56031       99.45664
H         -0.51273        8.79376       99.57487
H         -0.22031        9.62380       98.02714
H          1.86575       10.66300       98.96831
H          1.56589        9.82065      100.53801
N          2.28058        8.74490       96.31828
C          1.06467        8.93254       95.55684
H          0.42421        9.70987       96.00704
H          1.31879        9.28168       94.53302
H          0.51929        7.97286       95.45749
H          3.16659        8.94868       95.82875
Ca         9.49410       15.66578       91.30671
O          8.24034       14.75462       87.80688
H          7.88308       14.59110       86.89787
H          7.63459       15.43670       88.19219

Ca 1.0



