%chk=apoCaM-CA-Ng.loop4.water6.frame1006.chk
%nprocshared=20
%mem=10GB
%nosave
#b3lyp/svp scf=(tight,noincore,xqc) Test 
#IOP(5/87=12) Density=Current Pop=(MK,readradii) iop(6/33=2) iop(6/42=6)

apoCaM-CA-Ng.loop4.water6.frame1006 

   -3  1 
C         26.31942       62.52057       28.01698
C         26.17678       63.24344       26.70563
O         26.62353       62.71137       25.70402
H         25.31277       62.32105       28.44191
H         26.83406       61.54638       27.87160
H         26.91831       63.12438       28.72918
N         25.54960       64.44791       26.58490
C         24.98284       65.20958       27.68966
C         23.46848       65.18592       27.64408
O         22.85611       65.39793       28.68113
C         25.53589       66.65190       27.68600
C         27.02835       66.60825       27.51237
O         27.75265       65.81894       28.32016
O         27.55907       67.15002       26.55596
H         25.48027       64.85491       25.64913
H         25.27473       64.73176       28.64674
H         25.26136       67.16199       28.63381
H         25.09762       67.22617       26.83876
N         22.79324       64.91240       26.48729
C         21.34915       64.73325       26.41708
C         20.66281       65.91838       25.74547
O         19.44993       65.87151       25.59718
C         21.02059       63.32595       25.79966
C         21.44378       63.09050       24.32021
C         21.67943       62.23160       26.66503
C         20.60986       63.85537       23.29444
H         23.31244       64.81661       25.60626
H         20.91870       64.72089       27.44241
H         19.92253       63.16157       25.86547
H         21.28078       62.01648       24.07775
H         22.52495       63.29300       24.17023
H         22.78871       62.29974       26.62441
H         21.35471       62.32201       27.72278
H         21.38569       61.22138       26.30665
H         19.53645       63.59338       23.40323
H         20.72882       64.94596       23.39175
H         20.93761       63.57033       22.27147
N         21.35189       67.04857       25.39194
C         20.72100       68.23401       24.80481
C         21.73171       69.37369       24.76269
O         22.81779       69.17520       24.24084
C         20.19199       67.92677       23.38410
C         19.42243       69.06325       22.75714
O         19.19928       70.21526       23.41928
O         18.97318       68.92955       21.63073
H         22.36177       67.09268       25.59272
H         19.86404       68.53733       25.44597
H         19.50545       67.05778       23.41540
H         21.04027       67.66749       22.72300
N         21.44380       70.59698       25.29826
C         22.41266       71.68366       25.37648
C         23.01818       72.08828       24.04530
O         22.64794       71.56255       23.00460
H         20.51099       70.75949       25.70603
H         23.24637       71.34533       26.02949
H         21.94452       72.57244       25.85257
N         24.03839       72.99274       24.04342
C         24.85255       73.30041       22.87133
C         24.86079       74.79332       22.55937
O         24.94983       75.58311       23.48868
C         26.29831       72.78813       23.07920
C         27.05015       73.43365       24.21738
O         26.64167       73.27763       25.49082
O         28.06617       74.07098       23.99085
H         24.29882       73.42110       24.94319
H         24.47911       72.73670       21.99606
H         26.86481       72.96306       22.13836
H         26.27444       71.69041       23.25216
N         24.88864       75.28144       21.28104
C         24.88613       74.44911       20.08756
C         23.52120       73.84284       19.82097
O         22.57511       74.26087       20.47461
H         24.98646       76.30057       21.14925
H         25.69331       73.70702       20.18728
H         25.12419       75.08678       19.21089
N         23.27117       72.89844       18.86057
C         24.22671       72.14758       18.04361
C         24.98266       71.10211       18.84468
O         25.60244       71.40656       19.85061
C         25.19554       72.98275       17.17971
C         24.49133       73.88470       16.15479
C         23.59265       73.10735       15.21870
N         24.08372       72.11404       14.43830
O         22.40187       73.37636       15.17213
H         22.28029       72.64451       18.71762
H         23.62140       71.56808       17.31320
H         25.84116       72.27358       16.61636
H         25.88794       73.57907       17.79899
H         25.26662       74.40203       15.54941
H         23.90077       74.65614       16.69361
H         25.08259       71.86357       14.45860
H         23.45857       71.58438       13.81230
N         25.02032       69.82443       18.37605
C         25.76346       68.73826       18.99386
C         24.79935       67.60278       19.27487
O         23.94360       67.31856       18.44743
C         26.92381       68.31485       18.05445
C         27.70582       67.12296       18.62221
C         27.89797       69.48775       17.84956
H         24.53655       69.60783       17.49035
H         26.22750       69.05734       19.95475
H         26.51216       68.02155       17.06473
H         28.10916       67.35320       19.63230
H         27.04631       66.23974       18.68127
H         28.54955       66.85624       17.95190
H         28.72568       69.18808       17.17272
H         27.38387       70.35557       17.38831
H         28.33327       69.80849       18.82166
N         24.91090       66.88651       20.42569
C         23.97844       65.82874       20.80735
C         24.56179       64.43697       20.62848
O         23.81207       63.47301       20.70595
C         23.55971       66.06541       22.26376
C         24.74206       65.91729       23.19339
N         25.23448       66.97854       23.87040
O         25.28173       64.82717       23.30739
H         25.70172       67.10047       21.05252
H         23.08191       65.87536       20.15065
H         22.77805       65.34875       22.56597
H         23.14815       67.09153       22.33336
H         24.82496       67.91361       23.76329
H         26.05515       66.87181       24.48064
N         25.89470       64.25596       20.42461
C         26.51699       62.95808       20.17718
C         28.03286       63.04889       20.29916
O         28.56545       64.12665       20.53480
C         26.03248       62.40478       18.81435
C         26.14928       63.43514       17.71232
C         27.39269       63.77840       17.15830
C         24.99052       64.08805       17.25202
C         27.47223       64.75893       16.16156
C         25.07470       65.07615       16.27089
C         26.31688       65.41586       15.72122
O         26.41162       66.37461       14.77805
H         26.49459       65.08487       20.46362
H         26.21476       62.25388       20.98479
H         24.95852       62.15465       18.94116
H         26.52696       61.45137       18.53242
H         28.29747       63.28870       17.49384
H         24.01982       63.85131       17.67056
H         28.43448       65.01784       15.73928
H         24.17346       65.58058       15.94490
H         25.63724       66.86446       14.46495
N         28.78935       61.91839       20.24778
C         30.20316       61.91026       20.59531
C         30.32910       61.02630       21.81657
O         30.25523       59.81207       21.67711
C         31.03865       61.41798       19.39550
C         32.56376       61.45455       19.59983
C         33.12237       62.85423       19.66549
O         32.80307       63.68209       20.67775
O         33.89693       63.23901       18.80347
H         28.33037       61.01595       20.04642
H         30.52748       62.93444       20.85946
H         30.79523       62.03160       18.50006
H         30.73771       60.37117       19.16998
H         33.02055       60.94721       18.72133
H         32.85442       60.88505       20.50759
N         30.35606       61.57354       23.06837
C         30.25450       60.75261       24.27227
C         28.97129       59.93985       24.22631
O         29.03767       58.72369       24.34426
C         30.35398       61.58497       25.58354
C         31.73679       62.25749       25.68767
C         32.14771       62.67398       27.08200
O         33.12070       62.13046       27.58098
O         31.53989       63.64013       27.79980
H         30.37679       62.60047       23.16290
H         31.10642       60.03577       24.29369
H         30.25910       60.86020       26.42264
H         29.53897       62.33611       25.68267
H         31.80652       63.11319       24.98677
H         32.49293       61.50508       25.37129
N         27.77370       60.53689       23.98172
C         26.54844       59.77567       23.85475
H         25.70028       60.45357       23.62043
H         26.64544       59.03832       23.02789
H         26.33032       59.23962       24.80229
H         27.73697       61.55593       23.83726
Ca        29.69936       64.92077       27.62834
O         31.99540       66.00051       24.51861
H         31.88539       65.78009       23.55954
H         32.71207       65.39418       24.83309
O         29.70153       69.00592       27.83972
H         29.13957       68.83596       28.63714
H         29.45042       69.91810       27.54805
O         32.55756       68.06884       26.87246
H         33.02916       68.28049       27.71697
H         33.08283       68.53127       26.17199
O         29.95435       68.42321       24.46705
H         29.91262       68.28014       23.48804
H         30.61473       69.15180       24.58371
O         28.89360       65.02272       24.13754
H         28.36205       65.85488       24.20600
H         28.25447       64.34789       23.79665
O         31.15941       66.74111       29.52764
H         31.81567       66.00676       29.62988
H         31.57801       67.51540       29.98038

Ca 1.0



