%chk=apoCaM-CA-Ng.loop3.water3.frame788.chk
%nprocshared=20
%mem=10GB
%nosave
#b3lyp/svp scf=(tight,noincore,xqc) Test 
#IOP(5/87=12) Density=Current Pop=(MK,readradii) iop(6/33=2) iop(6/42=6)

apoCaM-CA-Ng.loop3.water3.frame788 

   0  1 
C          0.36159       -4.74057      -16.77225
C         -0.72780       -5.09014      -17.73417
O         -0.89789       -6.26459      -18.02660
H          1.08122       -4.04734      -17.25179
H         -0.08570       -4.25780      -15.87809
H          0.89922       -5.65750      -16.44653
N         -1.51166       -4.11145      -18.27103
C         -2.65136       -4.39575      -19.13560
C         -2.37589       -3.86721      -20.54646
O         -1.42083       -3.12308      -20.72521
C         -3.90021       -3.72841      -18.49652
C         -5.22463       -4.37887      -18.78426
O         -6.09813       -4.56729      -17.77915
O         -5.54847       -4.69788      -19.90849
H         -1.30686       -3.12707      -18.03686
H         -2.80061       -5.48818      -19.17750
H         -3.92145       -2.65037      -18.76797
H         -3.81070       -3.76713      -17.38804
N         -3.17945       -4.20070      -21.59590
C         -3.06097       -3.63816      -22.93522
C         -4.30512       -2.80477      -23.19902
O         -4.18016       -1.60464      -23.39983
C         -2.89321       -4.75689      -23.98679
C         -1.57957       -5.53612      -23.80996
C         -1.44506       -6.63597      -24.87476
C         -0.09750       -7.36380      -24.76187
N          0.02715       -8.40056      -25.78742
H         -3.93411       -4.87393      -21.44737
H         -2.18035       -2.96061      -23.00885
H         -2.89109       -4.29624      -24.99936
H         -3.74835       -5.46335      -23.92998
H         -1.54315       -6.00045      -22.80038
H         -0.72915       -4.82623      -23.90734
H         -1.51784       -6.17959      -25.88622
H         -2.27321       -7.36916      -24.75401
H         -0.00358       -7.82894      -23.75548
H          0.72840       -6.62844      -24.88813
H          0.96161       -8.86151      -25.69802
H         -0.71930       -9.12249      -25.66309
H         -0.04772       -7.97679      -26.74100
N         -5.54658       -3.37208      -23.16961
C         -6.78656       -2.61096      -23.29656
C         -6.90788       -1.55703      -22.19269
O         -7.02987       -0.38463      -22.52102
C         -8.03928       -3.54392      -23.40046
C         -8.12214       -4.76191      -22.48570
O         -8.08606       -4.64490      -21.14692
O         -8.22474       -5.87305      -22.97942
H         -5.60826       -4.38655      -23.02682
H         -6.76856       -2.04898      -24.25981
H         -8.04694       -3.94509      -24.43906
H         -8.95338       -2.92020      -23.29524
N         -6.86159       -1.89219      -20.87461
C         -6.97452       -0.94971      -19.77100
C         -8.16150       -1.24397      -18.86304
O         -8.34315       -0.50405      -17.90736
H         -6.71440       -2.86628      -20.63169
H         -7.08482        0.09089      -20.14590
H         -6.04041       -0.99605      -19.17136
N         -9.03550       -2.26479      -19.11542
C        -10.27360       -2.49257      -18.37902
C        -10.38599       -3.90942      -17.84225
O        -10.27413       -4.85376      -18.60933
C        -11.45339       -2.28959      -19.34509
C        -11.48359       -0.89170      -19.89888
N        -11.34960       -0.67472      -21.22760
O        -11.63048        0.05473      -19.14025
H         -8.88400       -2.86110      -19.92993
H        -10.38437       -1.76968      -17.54113
H        -12.41215       -2.48332      -18.81640
H        -11.36966       -3.02495      -20.17777
H        -11.21762       -1.46011      -21.88199
H        -11.37214        0.28377      -21.60409
N        -10.75681       -4.11969      -16.54922
C        -11.15065       -5.42163      -16.03688
C        -10.01803       -6.40524      -15.98134
O         -9.03770       -6.12411      -15.30532
H        -10.87725       -3.30897      -15.92359
H        -11.99076       -5.81705      -16.64819
H        -11.52710       -5.29613      -14.99846
N        -10.11981       -7.62482      -16.59481
C         -9.11135       -8.66392      -16.40637
C         -7.83623       -8.39687      -17.25067
O         -7.56675       -7.02945      -17.32684
C         -9.67263      -10.06454      -16.74137
C        -10.94345      -10.37140      -15.97475
C        -10.95743      -10.38660      -14.56768
C        -12.13543      -10.63986      -16.67025
C        -12.14413      -10.65017      -13.87430
C        -13.31828      -10.90747      -15.97506
C        -13.32960      -10.90936      -14.57724
O        -14.48226      -11.15934      -13.92331
H        -10.99306       -7.85594      -17.09297
H         -8.85344       -8.66481      -15.32380
H         -8.91404      -10.83985      -16.49618
H         -9.86772      -10.11692      -17.83524
H        -10.05486      -10.18844      -14.00433
H        -12.15285      -10.63890      -17.75279
H        -12.14201      -10.65031      -12.79134
H        -14.22890      -11.10945      -16.52507
H        -14.53745      -11.16107      -12.95704
N         -6.68794       -9.18698      -16.72193
C         -5.29714       -8.70973      -16.92386
C         -4.98714       -8.63399      -18.41093
O         -5.69206       -7.94363      -19.12939
C         -4.95091       -7.38565      -16.15262
C         -3.44684       -7.02381      -16.23138
C         -5.42648       -7.39820      -14.68730
C         -2.49595       -7.97781      -15.49900
H         -6.81342       -9.44898      -15.71714
H         -4.64772       -9.49310      -16.48107
H         -5.46047       -6.54458      -16.63360
H         -3.30115       -6.00983      -15.79661
H         -3.15599       -6.97226      -17.29749
H         -4.98129       -8.24256      -14.12262
H         -5.15513       -6.44271      -14.18856
H         -6.53103       -7.48257      -14.63216
H         -2.54658       -9.00433      -15.91072
H         -1.45355       -7.61466      -15.61607
H         -2.71792       -8.00365      -14.41225
N         -3.92552       -9.30617      -18.94309
C         -3.64689       -9.31686      -20.38001
C         -3.25610      -10.68409      -20.92550
O         -3.06866      -10.78376      -22.13204
C         -2.55259       -8.29599      -20.70234
O         -1.36606       -8.62311      -20.03460
H         -3.26181       -9.75066      -18.29371
H         -4.56051       -9.02100      -20.92937
H         -2.90866       -7.29959      -20.37984
H         -2.37686       -8.26931      -21.80133
H         -0.70835       -7.92709      -20.29400
N         -3.06942      -11.77040      -20.12510
C         -2.59584      -13.04995      -20.63992
C         -3.62343      -13.71708      -21.54292
O         -4.77071      -13.29223      -21.52807
C         -2.30335      -13.96142      -19.45320
H         -3.20918      -11.68516      -19.11025
H         -1.65600      -12.86675      -21.20418
H         -3.21657      -14.10718      -18.83791
H         -1.98700      -14.93937      -19.80436
H         -1.50315      -13.52178      -18.81964
N         -3.33301      -14.77391      -22.36497
C         -1.99458      -15.27969      -22.68555
C         -2.09133      -16.72529      -23.16525
O         -2.86113      -16.95926      -24.08801
C         -1.41292      -14.42951      -23.82264
H         -4.11369      -15.11701      -22.94790
H         -1.30072      -15.19027      -21.83473
H         -0.40101      -14.79663      -24.09814
H         -2.06558      -14.47329      -24.72208
H         -1.32635      -13.36791      -23.51169
N         -1.36036      -17.76980      -22.66769
C         -0.33577      -17.72344      -21.62526
C         -0.91191      -17.34719      -20.28055
O         -0.32537      -16.51093      -19.60765
C          0.34545      -19.10894      -21.50489
C          1.50482      -19.11374      -20.49203
C          2.14589      -20.46860      -20.41866
O          3.32636      -20.60651      -20.69652
O          1.42399      -21.53724      -20.02967
H         -1.52599      -18.68651      -23.11489
H          0.45806      -17.00061      -21.92156
H          0.75567      -19.38844      -22.50075
H         -0.40933      -19.87238      -21.21189
H          1.13728      -18.85486      -19.47651
H          2.26063      -18.35620      -20.79665
N         -2.02798      -17.96249      -19.80165
C         -2.58727      -17.65366      -18.50312
H         -3.50161      -18.25945      -18.33157
H         -1.84815      -17.88269      -17.70728
H         -2.86945      -16.58388      -18.44518
H         -2.50342      -18.67074      -20.38067
Ca        -7.95701       -6.22834      -19.47988
O        -10.66003       -7.18231      -20.65833
H        -11.34490       -6.55718      -20.31152
H        -10.63455       -7.91573      -19.99349
O         -5.33897       -7.02029      -22.16540
H         -5.93690       -6.65355      -22.85688
H         -4.66352       -7.51713      -22.68947
O         -7.78543       -9.20410      -20.76900
H         -7.07974       -9.39743      -21.43606
H         -7.55405       -9.77267      -19.99190

Ca 1.0



