%chk=apoCaM-CA-Ng.loop2.water3.frame725.chk
%nprocshared=20
%mem=10GB
%nosave
#b3lyp/svp scf=(tight,noincore,xqc) Test 
#IOP(5/87=12) Density=Current Pop=(MK,readradii) iop(6/33=2) iop(6/42=6)

apoCaM-CA-Ng.loop2.water3.frame725 

   -2  1 
C         67.98754       92.77766       11.35176
C         67.19113       94.02195       11.06749
O         66.62897       94.58813       11.99340
H         68.80315       93.00441       12.06993
H         67.32304       92.00304       11.78971
H         68.44031       92.36223       10.42612
N         67.08559       94.49847        9.79538
C         66.30368       95.68001        9.43917
C         66.87354       96.92300       10.09707
O         68.04734       97.20296        9.90587
C         66.29741       95.85834        7.90792
C         65.42904       97.01288        7.49047
O         65.90723       97.95033        6.87254
O         64.11748       97.01664        7.79748
H         67.56467       93.97915        9.04266
H         65.25112       95.51891        9.76197
H         65.89617       94.93659        7.43423
H         67.33801       96.01042        7.54209
N         66.08657       97.74400       10.85290
C         66.61692       98.94035       11.50670
C         67.58654       98.53682       12.61468
O         67.53924       97.38561       13.02585
C         65.46235       99.78954       12.05781
H         65.08267       97.52266       10.94014
H         67.15161       99.53417       10.73230
H         65.81655      100.71920       12.54368
H         64.79196      100.08119       11.21973
H         64.87210       99.21128       12.79888
N         68.55735       99.35711       13.11792
C         68.79903      100.74240       12.72562
C         69.96745      100.85004       11.76579
O         70.62990       99.85672       11.50045
C         69.01352      101.62052       13.98685
C         70.23567      101.27956       14.81976
O         71.01137      100.39341       14.49516
O         70.48172      101.98191       15.94145
H         69.20867       98.93376       13.79257
H         67.92975      101.13675       12.17100
H         68.11557      101.53099       14.63447
H         69.10819      102.68470       13.68480
N         70.24272      102.04696       11.17214
C         71.32413      102.25095       10.22224
C         70.79207      102.62864        8.85051
O         69.58231      102.68055        8.67707
H         69.64540      102.85920       11.38879
H         71.93179      101.32847       10.10411
H         71.97911      103.05601       10.61530
N         71.61675      102.86515        7.78632
C         73.07574      102.85056        7.85354
C         73.61248      101.61053        7.16659
O         72.86398      100.91860        6.48853
C         73.64816      104.13116        7.20564
C         73.18439      105.41950        7.85094
N         73.55622      106.60713        7.31874
O         72.47056      105.40351        8.84327
H         71.18200      103.03907        6.86582
H         73.41787      102.79328        8.90563
H         73.33162      104.15124        6.13925
H         74.75869      104.10764        7.23747
H         74.14871      106.64358        6.47614
H         73.24190      107.49356        7.74135
N         74.89354      101.20800        7.39646
C         75.39654       99.94296        6.88321
C         76.64648       99.51701        7.61091
O         77.67000       99.28429        6.98207
H         75.48165      101.76766        8.03418
H         75.54702      100.01080        5.78360
H         74.64841       99.14697        7.08941
N         76.61059       99.38572        8.96629
C         77.72820       98.94578        9.79464
C         77.31537       97.76252       10.65864
O         76.16714       97.33317       10.58902
C         78.19445      100.12478       10.68737
C         78.81228      101.24095        9.84069
O         77.10857      100.61918       11.43145
H         75.73082       99.63256        9.44902
H         78.58759       98.61602        9.16943
H         78.98867       99.77069       11.38013
H         77.48416      101.19726       12.14576
H         78.07533      101.65640        9.12317
H         79.17208      102.05787       10.50088
H         79.68447      100.84258        9.27792
N         78.20095       97.21206       11.53771
C         77.85007       96.17176       12.49163
C         77.85982       96.79217       13.87353
O         78.91795       97.18925       14.34744
C         78.81512       94.95404       12.38512
C         78.56094       93.92263       13.52330
C         78.67448       94.30045       10.99665
C         79.57685       92.77872       13.55301
H         79.15894       97.59252       11.58844
H         76.83130       95.80275       12.28997
H         79.85516       95.33265       12.49842
H         77.53623       93.50574       13.45331
H         78.64972       94.42963       14.50727
H         77.65153       93.88766       10.86203
H         78.86350       95.04150       10.19275
H         79.40916       93.48275       10.85853
H         80.60646       93.18564       13.64957
H         79.37354       92.12805       14.43000
H         79.51162       92.14788       12.64480
N         76.69769       96.90240       14.57559
C         76.59906       97.41915       15.92895
C         76.09241       96.35141       16.89308
O         76.13881       96.61785       18.08501
C         75.70589       98.68528       15.94638
C         74.31987       98.36959       15.44871
O         73.61635       97.57713       16.05327
O         73.90233       98.84390       14.26164
H         75.82536       96.60537       14.12775
H         77.61068       97.70984       16.28955
H         76.17162       99.43943       15.27404
H         75.65293       99.12364       16.96634
N         75.59464       95.13169       16.48509
C         75.23840       94.10513       17.46039
C         74.39221       92.97434       16.83027
O         74.85845       91.84453       16.76891
C         76.55585       93.56175       18.08265
C         76.36349       93.06168       19.48767
C         76.20612       94.00160       20.52302
C         76.38273       91.69423       19.79640
C         76.07876       93.58195       21.84694
C         76.23700       91.27630       21.12512
C         76.09123       92.21925       22.14881
H         75.47606       94.91639       15.48649
H         74.62709       94.58359       18.25567
H         77.33023       94.35392       18.16683
H         77.01427       92.80638       17.40752
H         76.20733       95.06293       20.30600
H         76.50366       90.95635       19.01388
H         75.97707       94.31538       22.63702
H         76.24439       90.22153       21.36406
H         75.99193       91.89643       23.17671
N         73.12059       93.18639       16.35992
C         72.25465       92.15446       15.78457
C         72.83065       91.44162       14.58126
O         72.65646       90.23627       14.46799
C         71.01086       92.93287       15.34249
C         70.94205       94.00185       16.40117
C         72.40369       94.43955       16.47931
H         71.97958       91.42536       16.58067
H         71.20220       93.45551       14.37547
H         70.10024       92.30526       15.22765
H         70.21441       94.81209       16.21049
H         70.66384       93.50672       17.36042
H         72.68745       95.09446       15.62640
H         72.55395       94.95365       17.44998
N         73.51903       92.13807       13.63388
C         74.04955       91.53882       12.41398
C         74.91197       90.33613       12.75067
O         74.66327       89.26697       12.21056
C         74.88346       92.53653       11.57823
C         74.13515       93.74637       10.97658
C         73.75860       94.80194       11.96952
O         72.54489       95.37747       11.98782
O         74.60800       95.23048       12.72129
H         73.68824       93.13245       13.81904
H         73.20553       91.19766       11.77336
H         75.28512       91.97007       10.70875
H         75.75433       92.89361       12.16489
H         73.25996       93.43245       10.37110
H         74.86093       94.24179       10.29412
N         75.91191       90.43044       13.67179
C         76.73526       89.30535       14.06844
H         77.80444       89.55864       13.91753
H         76.56313       89.08681       15.14367
H         76.50748       88.38593       13.48806
H         76.07638       91.33090       14.14621
Ca        72.65944       97.35249       13.10631
O         70.25641       96.67127       14.49546
H         69.57037       96.04260       14.15764
H         69.85768       97.06696       15.31063
O         70.54510       96.93937       10.94612
H         70.41833       96.02244       10.59451
H         70.01011       96.95893       11.77840
O         73.01876       98.69439       10.09656
H         73.46506       97.81933       10.21842
H         73.54719       99.32284       10.64999

Ca 1.0



