%chk=apoCaM-CA-Ng.loop4.water2.frame90.chk
%nprocshared=20
%mem=10GB
%nosave
#b3lyp/svp scf=(tight,noincore,xqc) Test 
#IOP(5/87=12) Density=Current Pop=(MK,readradii) iop(6/33=2) iop(6/42=6)

apoCaM-CA-Ng.loop4.water2.frame90 

   -3  1 
C         29.79176       57.25791        5.51272
C         28.56618       58.07231        5.78066
O         28.69778       59.14209        6.35802
H         30.28954       57.02765        6.47892
H         29.54037       56.30410        5.00589
H         30.48950       57.83822        4.87407
N         27.33124       57.63792        5.38697
C         26.10491       58.37433        5.66593
C         26.18221       59.78504        5.10537
O         26.06664       60.74103        5.85329
C         25.65696       58.20004        7.15663
C         26.74589       57.99706        8.19595
O         27.31355       59.02065        8.85878
O         27.07848       56.85962        8.49171
H         27.25295       56.75744        4.85684
H         25.26802       57.92001        5.08688
H         25.13199       57.21771        7.15643
H         24.86397       58.91267        7.47310
N         26.35493       59.94661        3.75226
C         26.32856       61.20031        2.98929
C         24.89369       61.72258        2.84771
O         24.41574       61.75055        1.72052
C         27.40409       62.22215        3.46109
C         27.32799       63.58364        2.71681
C         28.81138       61.60711        3.31465
C         27.48896       63.52776        1.19456
H         26.49315       59.09012        3.19315
H         26.61975       60.93472        1.94582
H         27.24559       62.45178        4.53182
H         28.11447       64.25788        3.12154
H         26.34806       64.05081        2.93339
H         29.02624       61.34390        2.25669
H         29.58864       62.31928        3.66276
H         28.90096       60.67940        3.91669
H         26.69154       62.91556        0.72852
H         27.39962       64.55622        0.78610
H         28.48188       63.12872        0.90552
N         24.11411       62.08308        3.90810
C         22.69711       62.40693        3.75156
C         22.49193       63.71761        2.98663
O         21.84165       63.66102        1.95282
C         21.95138       62.35142        5.10603
C         20.46068       62.42546        4.92687
O         19.87811       61.58157        4.26335
O         19.75644       63.40705        5.52022
H         24.49697       62.04359        4.85578
H         22.24383       61.57571        3.16163
H         22.26800       63.14998        5.79575
H         22.17931       61.37848        5.59535
N         23.02366       64.92780        3.34871
C         23.87824       65.16412        4.50041
C         23.50073       66.40872        5.29110
O         22.63611       67.14866        4.84443
H         22.87319       65.72364        2.70857
H         24.89722       65.35186        4.11481
H         23.92351       64.28677        5.14622
N         24.14298       66.77365        6.44957
C         25.05112       65.92825        7.22484
C         26.15989       65.32095        6.35980
O         26.20972       64.10727        6.21925
C         24.18987       64.90755        8.00248
C         25.02112       63.90589        8.73014
O         24.91712       62.62768        8.34014
O         25.83194       64.23907        9.57965
H         23.90541       67.68798        6.86487
H         25.54174       66.53278        8.02002
H         23.53605       64.35343        7.30577
H         23.52826       65.43938        8.72001
N         27.09687       66.07265        5.72278
C         27.23669       67.50971        5.84259
C         27.10187       68.19168        4.51134
O         26.88123       67.54138        3.49848
H         27.77670       65.58199        5.12773
H         28.24430       67.73044        6.25447
H         26.48857       67.94775        6.52856
N         27.20969       69.54665        4.45837
C         27.05568       70.30631        3.22452
C         28.20178       70.05783        2.23979
O         28.08397       70.49489        1.10313
C         26.90472       71.80756        3.58153
C         26.55451       72.73652        2.40771
C         25.26128       72.33804        1.74052
N         25.23670       71.98924        0.43317
O         24.22490       72.32887        2.38846
H         27.35137       70.05330        5.34648
H         26.10313       69.97055        2.75709
H         27.84198       72.16672        4.06010
H         26.08719       71.90023        4.33220
H         27.38875       72.75222        1.67866
H         26.44606       73.77234        2.79503
H         26.09876       71.98776       -0.13081
H         24.35169       71.71427       -0.01784
N         29.32772       69.35789        2.58066
C         30.41063       69.07242        1.63953
C         31.74551       69.68820        2.06168
O         32.69473       69.53011        1.30933
C         30.53524       67.54499        1.37695
C         29.27195       67.00131        0.69318
C         30.82595       66.74709        2.65065
H         29.43026       69.00337        3.54163
H         30.19353       69.53380        0.65020
H         31.37738       67.38139        0.66829
H         28.38104       67.11269        1.34468
H         29.08645       67.54420       -0.25838
H         29.40441       65.92577        0.45089
H         30.96108       65.67148        2.40645
H         31.75311       67.11649        3.13489
H         29.98068       66.83461        3.36042
N         31.88549       70.46705        3.18166
C         33.10682       71.23248        3.45334
C         33.67953       71.02077        4.85134
O         34.66253       71.68618        5.15672
C         32.77299       72.73092        3.28969
C         32.20492       73.03516        1.92534
N         30.95282       73.53426        1.79724
O         32.87889       72.82543        0.92773
H         31.07699       70.63217        3.79585
H         33.90766       70.98185        2.72359
H         33.68864       73.34659        3.43087
H         32.04093       73.02204        4.07468
H         30.36716       73.71398        2.62602
H         30.56302       73.73806        0.86537
N         33.15097       70.15200        5.76041
C         33.59862       70.10924        7.15537
C         33.13183       68.84354        7.86021
O         31.94154       68.55932        7.87278
C         33.02820       71.32012        7.94296
C         33.73090       72.63388        7.69803
C         33.06074       73.72277        7.11493
C         35.06760       72.79141        8.10552
C         33.71952       74.94667        6.94372
C         35.71981       74.01609        7.94165
C         35.04663       75.09989        7.36181
O         35.66060       76.29114        7.20998
H         32.37700       69.53307        5.47370
H         34.70975       70.11220        7.20592
H         33.13393       71.13881        9.03575
H         31.93834       71.39457        7.73017
H         32.03032       73.62840        6.79695
H         35.59907       71.97002        8.56987
H         33.19494       75.78129        6.49571
H         36.74491       74.12330        8.27436
H         36.57021       76.44279        7.50529
N         34.04054       68.08408        8.54806
C         33.72348       66.93338        9.39330
C         33.24735       65.70652        8.63250
O         32.95048       64.71691        9.28819
C         32.75204       67.30776       10.53658
C         33.33618       68.39049       11.45571
C         32.40932       68.66724       12.60394
O         31.28472       69.09537       12.39882
O         32.81591       68.44251       13.86829
H         35.03019       68.37712        8.53726
H         34.66693       66.60333        9.88574
H         32.57737       66.40374       11.16148
H         31.77085       67.63147       10.13335
H         33.50822       69.33157       10.89180
H         34.31158       68.03830       11.85890
N         33.25078       65.63932        7.27030
C         32.95070       64.40554        6.54921
C         34.21733       63.79924        5.96200
O         34.11851       62.73362        5.36846
C         31.92282       64.67348        5.43728
C         30.57516       65.18405        5.95825
C         29.85579       64.17028        6.80167
O         29.54998       63.08557        6.33264
O         29.51769       64.46574        8.07035
H         33.56530       66.44993        6.71760
H         32.53828       63.63260        7.23394
H         31.74160       63.74457        4.85207
H         32.34856       65.43057        4.74547
H         29.94379       65.40208        5.08143
H         30.71683       66.12745        6.52774
N         35.44242       64.38853        6.10769
C         36.67027       63.80922        5.60373
H         37.37059       63.65218        6.45107
H         36.50685       62.83262        5.10260
H         37.13532       64.50727        4.87747
H         35.53915       65.28477        6.60437
Ca        26.37118       61.02633        8.81561
O         28.72463       62.57175       10.78732
H         28.20017       63.22235       10.25744
H         29.66798       62.80699       10.60090
O         30.34597       60.90583        8.32040
H         30.72829       60.71226        7.42776
H         30.93945       61.60368        8.69577

Ca 1.0



