%chk=apoCaM-CA-Ng.loop1.water1.frame833.chk
%nprocshared=20
%mem=10GB
%nosave
#b3lyp/svp scf=(tight,noincore,xqc) Test 
#IOP(5/87=12) Density=Current Pop=(MK,readradii) iop(6/33=2) iop(6/42=6)

apoCaM-CA-Ng.loop1.water1.frame833 

   0  1 
C         30.43903       78.59961      101.83045
C         29.65491       77.81152      100.82911
O         29.78307       76.59463      100.80187
H         31.09510       79.32216      101.30211
H         29.74605       79.14846      102.49934
H         31.07596       77.92454      102.44213
N         28.81709       78.44406       99.95674
C         28.05839       77.71343       98.94420
C         28.98544       76.94600       98.00595
O         30.19636       77.10848       98.07133
C         27.05206       78.62909       98.20316
C         27.64564       79.81894       97.49584
O         28.96483       80.07595       97.54272
O         26.90963       80.58614       96.89602
H         28.71531       79.46769      100.03167
H         27.44957       76.95012       99.47853
H         26.32605       79.01873       98.95023
H         26.48121       78.02453       97.46622
N         28.47331       76.00360       97.17000
C         29.30537       74.97563       96.54795
C         29.78782       75.32604       95.15542
O         30.30185       74.43200       94.49623
C         28.60035       73.60142       96.66065
C         28.55103       73.17874       98.14260
C         27.81126       71.86027       98.37791
C         27.93010       71.45908       99.85844
N         27.16307       70.25002      100.14881
H         27.45114       75.86022       97.17642
H         30.25610       74.85161       97.11453
H         29.17680       72.82207       96.11556
H         27.58301       73.65812       96.21471
H         28.05411       73.96529       98.75090
H         29.59996       73.06959       98.49990
H         28.24798       71.05485       97.74800
H         26.74238       71.99443       98.10321
H         27.55933       72.28496      100.50579
H         29.00242       71.28195      100.10303
H         27.30005       69.99530      101.15407
H         26.14603       70.42766       99.98231
H         27.49048       69.45844       99.54953
N         29.84520       76.62046       94.71485
C         30.54203       76.99336       93.48386
C         31.90118       77.72716       93.77866
O         32.21830       77.84637       95.13536
C         29.60076       77.76159       92.51114
C         28.95203       79.10004       92.86574
O         28.16679       79.56349       92.05402
O         29.16224       79.80836       94.00000
H         29.46092       77.36501       95.30744
H         30.79004       76.06731       92.94695
H         28.76022       77.06559       92.29598
H         30.13844       77.92315       91.55533
N         33.13137       77.38256       93.02738
C         32.98950       76.62394       91.77938
C         32.92839       75.13585       92.03892
O         33.13476       74.69835       93.16341
H         33.61704       78.28676       92.82716
H         33.87134       76.80212       91.12589
H         32.10344       76.97198       91.21742
N         32.58819       74.30187       91.02072
C         32.44242       72.85919       91.15991
C         33.25748       72.18458       90.07669
O         33.07293       72.50569       88.90923
C         30.94977       72.49921       91.04442
C         30.65130       71.04039       91.29091
O         31.62932       70.15971       91.58178
O         29.49572       70.65172       91.24679
H         32.36226       74.72399       90.10613
H         32.78076       72.52237       92.16577
H         30.56922       72.78979       90.04155
H         30.39320       73.08273       91.81073
N         34.17983       71.23014       90.38305
C         35.00900       70.60502       89.36902
C         36.08960       71.53044       88.84561
O         36.82698       71.10517       87.96987
H         34.28519       70.91850       91.36031
H         34.36686       70.23347       88.53997
H         35.53113       69.72987       89.81219
N         36.28556       72.77926       89.36942
C         37.37964       73.65417       88.96715
C         36.85659       74.98673       88.45634
O         35.67225       75.26510       88.56569
C         38.34248       73.86807       90.17284
C         37.68129       74.54128       91.39621
O         38.93220       72.64911       90.55254
H         35.67377       73.11959       90.12004
H         37.96006       73.19149       88.14011
H         39.16813       74.53388       89.84511
H         38.22985       72.08614       90.97200
H         38.44174       74.71342       92.18659
H         37.23535       75.51941       91.12456
H         36.88249       73.90657       91.83228
N         37.73077       75.87060       87.89442
C         37.38032       77.23647       87.51642
C         37.50849       77.42926       86.01210
O         36.59909       77.99158       85.41362
C         38.30196       78.24810       88.27060
C         38.34577       77.93868       89.79087
C         37.81540       79.69145       88.01621
C         39.29580       78.83610       90.58559
H         38.71095       75.57619       87.78092
H         36.33218       77.46457       87.81396
H         39.33889       78.14299       87.87942
H         38.72784       76.90816       89.92887
H         37.32625       77.99958       90.22938
H         38.48904       80.43590       88.48392
H         37.79718       79.92345       86.93194
H         36.79081       79.82975       88.42575
H         38.95207       79.88917       90.59161
H         39.32956       78.48863       91.64004
H         40.32202       78.77984       90.16364
N         38.60998       76.99525       85.33559
C         38.86553       77.26850       83.92350
C         40.27429       77.82692       83.77702
O         41.12392       77.52017       84.60667
C         38.69738       75.98765       83.07205
C         37.26043       75.45228       83.15245
O         38.99702       76.27732       81.72994
H         39.31488       76.44265       85.84616
H         38.14330       78.02434       83.53895
H         39.40288       75.21391       83.45639
H         39.17632       75.41077       81.27910
H         36.99166       75.18813       84.19627
H         36.54302       76.21360       82.77570
H         37.15998       74.53845       82.52901
N         40.60427       78.64041       82.73527
C         41.94638       79.18409       82.54604
C         41.90582       80.70320       82.62875
O         42.57743       81.26372       83.48208
C         42.55364       78.65352       81.22350
C         44.02079       79.07451       81.06966
O         41.80701       79.09283       80.11858
H         39.87290       78.88189       82.04754
H         42.62202       78.82604       83.35624
H         42.51741       77.53957       81.27176
H         42.07956       78.53524       79.34377
H         44.44254       78.64180       80.13792
H         44.11453       80.17958       81.02274
H         44.61796       78.69522       81.92684
N         41.11997       81.42858       81.78201
C         41.01017       82.88160       81.81002
C         39.57884       83.29674       82.12245
O         38.65432       82.82374       81.47768
C         41.44545       83.51873       80.46991
C         40.76092       82.92287       79.22377
C         40.70854       83.93652       78.07928
C         39.99448       83.33684       76.86094
N         39.71955       84.36426       75.85883
H         40.54547       80.92782       81.09133
H         41.67471       83.32494       82.58417
H         42.54625       83.44539       80.32762
H         41.20392       84.60207       80.56289
H         39.70706       82.67328       79.42936
H         41.27701       81.98102       78.93344
H         41.72493       84.28610       77.79768
H         40.11823       84.80962       78.43940
H         39.02458       82.88757       77.17318
H         40.62722       82.53255       76.42467
H         39.26286       83.91899       75.03062
H         39.06239       85.07503       76.25772
H         40.60516       84.83105       75.55924
N         39.32914       84.22367       83.08956
C         37.99638       84.76699       83.33108
C         37.30370       84.02871       84.46957
O         36.27063       83.43628       84.18909
C         38.03869       86.30850       83.46972
C         36.63804       86.91562       83.64324
C         36.70858       88.41370       83.73135
O         37.40777       89.00146       84.72150
O         36.12339       89.10593       82.91378
H         40.12859       84.61027       83.60859
H         37.37120       84.59289       82.42393
H         38.49624       86.72819       82.54544
H         38.66948       86.62383       84.32142
H         36.17279       86.53278       84.57633
H         35.99801       86.62282       82.78182
N         37.74128       83.96718       85.76200
C         38.93707       84.57194       86.30865
H         39.53289       85.13082       85.58000
H         38.65119       85.27158       87.12047
H         39.58478       83.77562       86.72999
H         37.16963       83.42779       86.43042
Ca        30.73399       79.42822       95.52289
O         32.34929       79.45730       98.24710
H         33.19627       78.97350       98.07784
H         31.89955       78.92716       98.95117

Ca 1.0



