%chk=apoCaM-CA-Ng.loop1.water3.frame1229.chk
%nprocshared=20
%mem=10GB
%nosave
#b3lyp/svp scf=(tight,noincore,xqc) Test 
#IOP(5/87=12) Density=Current Pop=(MK,readradii) iop(6/33=2) iop(6/42=6)

apoCaM-CA-Ng.loop1.water3.frame1229 

   0  1 
C         73.54505       23.32024       28.57598
C         72.24944       22.56920       28.47304
O         71.88948       22.15977       27.37884
H         74.37627       22.67748       28.21926
H         73.49623       24.23668       27.95126
H         73.75748       23.62080       29.62408
N         71.48446       22.36543       29.58057
C         70.21124       21.66161       29.56787
C         69.12424       22.65992       29.88607
O         68.51463       22.60677       30.94639
C         70.23094       20.47330       30.54848
C         71.23995       19.43305       30.14438
O         72.55199       19.73377       30.10892
O         70.87471       18.30408       29.85713
H         71.80374       22.74982       30.48358
H         69.97384       21.24101       28.56391
H         69.22030       20.00501       30.54832
H         70.45271       20.82103       31.57991
N         68.80301       23.58705       28.94203
C         67.72964       24.56330       29.08733
C         66.43109       23.87178       29.49869
O         65.88511       24.28038       30.51355
C         67.54461       25.41277       27.80098
C         68.80505       26.22821       27.44157
C         68.62396       26.98547       26.11619
C         69.91235       27.68592       25.64372
N         70.33264       28.76414       26.53946
H         69.31786       23.54425       28.05027
H         68.00307       25.27438       29.90056
H         66.70286       26.12421       27.95405
H         67.28048       24.76253       26.94440
H         69.67375       25.55202       27.31642
H         69.02623       26.93540       28.26856
H         67.79584       27.72237       26.19946
H         68.35319       26.24643       25.33021
H         69.72575       28.11477       24.63425
H         70.73117       26.93802       25.54593
H         69.57591       29.48170       26.61573
H         70.57312       28.39243       27.48511
H         71.18697       29.21760       26.14162
N         65.87529       22.79587       28.85875
C         66.39110       22.11981       27.66871
C         66.82274       20.69130       27.98569
O         66.64166       20.23159       29.10529
C         65.34074       22.18606       26.54608
C         64.01153       21.63106       26.97475
O         63.89525       20.34777       27.36302
O         63.03447       22.36020       27.00120
H         65.01827       22.40276       29.28016
H         67.29863       22.61406       27.29069
H         65.69565       21.64696       25.64346
H         65.20355       23.25531       26.26861
N         67.49885       19.96437       27.04986
C         68.10325       18.66947       27.32993
C         67.12552       17.51939       27.38816
O         65.94373       17.70299       27.14165
H         67.70209       20.40020       26.13715
H         68.69001       18.73581       28.26883
H         68.80963       18.42346       26.50684
N         67.59900       16.27111       27.68469
C         66.80766       15.04034       27.61369
C         67.51076       14.04890       26.67427
O         68.64608       14.32419       26.30997
C         66.65604       14.44089       29.03210
C         66.11709       15.40091       30.07478
O         64.89849       15.97364       29.96738
O         66.79426       15.64763       31.05989
H         68.59280       16.18531       27.95008
H         65.82675       15.26156       27.19202
H         67.65819       14.09534       29.37080
H         65.98784       13.56225       29.01050
N         66.98218       12.87110       26.21734
C         65.63340       12.35424       26.38407
C         64.62983       13.15018       25.58999
O         64.88116       13.42574       24.42494
H         67.60541       12.27822       25.64480
H         65.35167       12.22267       27.44491
H         65.61387       11.33712       25.93361
N         63.42608       13.48372       26.12982
C         62.40619       14.22564       25.38649
C         62.82560       15.70950       25.18978
O         64.00430       15.99000       25.85918
C         61.04754       14.17507       26.12381
C         60.52072       12.73528       26.23386
O         60.10918       14.94216       25.41494
H         63.22046       13.16853       27.09009
H         62.24193       13.73715       24.39825
H         61.18615       14.60049       27.14478
H         59.34637       15.09958       26.03058
H         61.22058       12.08447       26.79596
H         59.54746       12.73038       26.76862
H         60.36708       12.30392       25.22116
N         62.96698       16.06640       23.77043
C         63.36877       17.47275       23.49940
C         62.55994       18.45496       24.33031
O         62.78874       18.56438       25.52539
C         64.90708       17.72907       23.65521
C         65.71209       16.71446       22.80774
C         65.26066       19.18500       23.28007
C         67.22582       16.80097       23.01982
H         62.02623       15.92094       23.33372
H         63.13898       17.64948       22.42385
H         65.20220       17.60171       24.71101
H         65.47979       16.85003       21.72917
H         65.41322       15.68655       23.09968
H         64.70468       19.90478       23.91656
H         66.33442       19.39754       23.45457
H         65.01624       19.38790       22.21648
H         67.63247       17.77512       22.68291
H         67.47364       16.64695       24.09237
H         67.72513       16.00761       22.42498
N         61.60222       19.21253       23.74019
C         60.79693       20.20034       24.44097
C         59.32171       19.80669       24.46183
O         58.52078       20.64497       24.83548
C         61.05053       21.60787       23.83460
C         60.80773       21.70483       22.32548
O         62.38256       21.97895       24.09118
H         61.41962       19.06919       22.73599
H         61.08593       20.28596       25.51293
H         60.35404       22.32238       24.33859
H         62.36601       22.84986       24.56629
H         59.77402       21.39869       22.06805
H         60.96642       22.75374       21.99547
H         61.53244       21.07551       21.76691
N         58.89718       18.54057       24.13852
C         57.49420       18.10273       24.19466
C         56.99265       18.16359       25.64256
O         57.21138       17.22265       26.39250
C         57.37751       16.66518       23.60992
C         55.92790       16.20248       23.47000
O         57.97825       16.62835       22.33846
H         59.60172       17.84921       23.84662
H         56.89669       18.78066       23.54627
H         57.91163       15.96818       24.29774
H         58.47353       15.76922       22.26988
H         55.40991       16.20251       24.45041
H         55.38427       16.86814       22.76611
H         55.90966       15.16850       23.06206
N         56.47562       19.33113       26.13532
C         56.28365       19.65179       27.55285
C         57.58579       19.52411       28.33643
O         58.54126       18.95668       27.82895
C         55.17023       18.83916       28.24504
C         53.78817       19.03130       27.60551
C         52.70233       18.43129       28.51390
C         51.29870       18.59355       27.91860
N         50.28024       18.11806       28.85656
H         56.30504       20.10073       25.47246
H         55.99122       20.72587       27.59915
H         55.10797       19.20456       29.29392
H         55.42299       17.75757       28.27627
H         53.77307       18.55743       26.59986
H         53.57878       20.11793       27.49403
H         52.73399       18.96081       29.49265
H         52.90300       17.35184       28.68894
H         51.23224       18.01608       26.97000
H         51.10638       19.66610       27.69359
H         50.44532       17.11375       29.09708
H         50.30250       18.69518       29.72936
H         49.33589       18.21272       28.41807
N         57.71472       20.05951       29.58108
C         58.93434       19.91925       30.37744
C         60.18055       20.33223       29.59883
O         61.07025       19.50033       29.49122
C         58.86767       20.68114       31.72047
C         57.76956       20.14981       32.65286
C         57.79302       20.87821       33.96602
O         57.59634       22.08261       34.00633
O         58.02667       20.20362       35.10785
H         56.92130       20.59734       29.96378
H         59.05696       18.84017       30.63011
H         58.72325       21.76765       31.55514
H         59.84287       20.54514       32.24070
H         57.94018       19.06630       32.83468
H         56.76595       20.27644       32.19796
N         60.36235       21.54578       29.00318
C         59.41517       22.63826       28.95679
H         58.46327       22.42397       29.46704
H         59.87273       23.53570       29.42148
H         59.18222       22.86552       27.89498
H         61.25205       21.70024       28.51193
Ca        63.68401       15.84080       28.09278
O         64.42809       19.00512       30.71290
H         64.66606       19.93033       30.97287
H         65.13341       18.44499       31.12458
O         61.12145       16.23720       29.85073
H         61.56469       15.37274       30.04134
H         60.72748       16.51558       30.71474
O         60.91497       17.30042       27.15553
H         60.70620       18.23259       26.90225
H         60.04990       16.92058       27.44647

Ca 1.0



