%chk=apoCaM-CA-Ng.loop1.water3.frame415.chk
%nprocshared=20
%mem=10GB
%nosave
#b3lyp/svp scf=(tight,noincore,xqc) Test 
#IOP(5/87=12) Density=Current Pop=(MK,readradii) iop(6/33=2) iop(6/42=6)

apoCaM-CA-Ng.loop1.water3.frame415 

   0  1 
C         87.70538      101.79508      -15.36981
C         86.33763      101.95418      -15.96629
O         85.76224      100.98359      -16.43732
H         88.42430      102.44032      -15.91862
H         87.68671      102.10558      -14.30345
H         88.04830      100.74144      -15.43271
N         85.75269      103.18088      -15.97328
C         84.42776      103.44611      -16.52902
C         84.41424      103.40898      -18.06157
O         83.38023      103.73306      -18.62062
C         83.94349      104.85562      -16.08521
C         83.78723      104.99600      -14.59126
O         82.57630      105.26807      -14.06784
O         84.75006      104.89768      -13.84778
H         86.27363      103.95610      -15.53478
H         83.69681      102.71159      -16.12518
H         82.94434      105.05131      -16.53364
H         84.64272      105.63722      -16.45624
N         85.51185      103.10746      -18.81677
C         85.59510      103.40124      -20.24777
C         85.85125      102.15373      -21.08814
O         86.69376      101.36620      -20.68048
C         86.74536      104.40845      -20.44186
C         86.50506      105.67976      -19.60986
C         87.61854      106.70395      -19.81260
C         87.39199      107.92130      -18.90722
N         88.44291      108.91743      -19.10034
H         86.37879      102.78757      -18.36582
H         84.68673      103.91155      -20.59246
H         86.82931      104.68366      -21.51215
H         87.70753      103.94428      -20.13111
H         86.46912      105.41341      -18.53083
H         85.53109      106.13544      -19.89579
H         87.63379      107.02136      -20.87811
H         88.59739      106.24123      -19.55895
H         87.38953      107.59328      -17.84281
H         86.40355      108.38013      -19.13337
H         88.43016      109.26151      -20.08782
H         88.27117      109.72315      -18.45671
H         89.37724      108.50115      -18.88179
N         85.26754      101.90286      -22.31100
C         84.30457      102.74197      -23.03515
C         84.85993      104.14896      -23.25358
O         84.34312      105.09958      -22.68667
C         82.90402      102.67715      -22.39198
C         82.31440      101.30069      -22.43777
O         81.25052      101.08726      -21.87880
O         82.93863      100.29023      -23.07279
H         85.57379      101.04986      -22.80501
H         84.13278      102.31921      -24.04865
H         82.20203      103.33071      -22.94263
H         82.94100      102.97912      -21.33370
N         85.91447      104.38472      -24.08638
C         86.48877      103.33606      -24.91168
C         87.56494      103.80965      -25.86917
O         87.96680      104.96220      -25.81139
H         86.25322      105.35456      -24.17584
H         85.66505      102.94229      -25.54365
H         86.90727      102.53050      -24.27357
N         88.05804      102.98706      -26.84445
C         87.60216      101.61300      -27.06205
C         86.73001      101.54355      -28.29811
O         86.68815      102.50056      -29.06186
C         88.77631      100.61253      -27.10821
C         89.70644      100.80953      -28.27994
O         89.83532       99.92309      -29.10919
O         90.42814      101.93888      -28.40742
H         88.72800      103.39565      -27.51197
H         86.95824      101.28750      -26.22364
H         88.35392       99.58496      -27.16245
H         89.36104      100.68467      -26.16608
N         85.93560      100.45644      -28.52057
C         85.03289      100.37163      -29.65797
C         83.94577      101.44067      -29.66959
O         83.28263      101.54834      -30.68806
H         85.96859       99.66235      -27.86265
H         84.54017       99.37523      -29.68003
H         85.64365      100.46986      -30.58121
N         83.72599      102.27842      -28.60948
C         82.77409      103.39334      -28.60195
C         83.01369      104.25790      -27.36019
O         82.93541      103.77069      -26.24107
C         81.27867      102.97600      -28.71605
C         80.84218      101.90769      -27.69749
O         80.96443      102.59936      -30.03838
H         84.30201      102.15643      -27.76555
H         82.98841      104.03536      -29.48470
H         80.66726      103.88498      -28.51842
H         80.86706      101.61445      -30.09963
H         81.01349      102.24173      -26.65711
H         79.75592      101.70890      -27.82167
H         81.39669      100.96103      -27.86966
N         83.35028      105.56981      -27.51907
C         83.71584      106.48764      -26.43429
C         82.56681      106.82884      -25.46452
O         82.79856      107.62105      -24.56132
C         84.32832      107.80524      -27.03165
C         83.27630      108.63826      -27.82061
C         85.57932      107.48674      -27.88462
C         83.81846      109.96013      -28.36889
H         83.41092      105.91262      -28.48648
H         84.52423      106.00909      -25.84156
H         84.68236      108.42594      -26.17848
H         82.43641      108.88875      -27.13830
H         82.86183      108.06058      -28.67212
H         85.32982      106.92314      -28.80691
H         86.10154      108.41542      -28.19063
H         86.30500      106.88931      -27.29408
H         82.99267      110.52405      -28.85218
H         84.24054      110.57861      -27.54930
H         84.59504      109.78537      -29.14153
N         81.30842      106.31432      -25.59989
C         80.14489      106.74655      -24.81031
C         80.21599      106.53702      -23.28975
O         79.28744      106.97614      -22.62774
C         78.85646      106.06604      -25.35160
C         78.85580      104.54267      -25.12090
O         78.73118      106.34101      -26.72350
H         81.13779      105.65757      -26.36933
H         80.04064      107.84258      -24.97377
H         77.98351      106.50613      -24.81552
H         77.80639      106.09308      -26.98528
H         77.91427      104.10238      -25.50939
H         79.70734      104.05278      -25.63361
H         78.91619      104.30718      -24.03933
N         81.23456      105.87219      -22.67031
C         81.35170      105.63134      -21.22021
C         80.22482      104.71614      -20.70094
O         79.28720      104.45123      -21.43881
C         81.55383      106.98228      -20.46171
C         82.11826      106.86177      -19.04277
O         80.36029      107.71915      -20.40859
H         81.98540      105.50203      -23.26199
H         82.29650      105.07430      -21.08059
H         82.33653      107.53443      -21.03863
H         80.57342      108.65202      -20.67286
H         81.39501      106.40419      -18.34301
H         83.06882      106.28856      -19.05164
H         82.34201      107.87694      -18.65072
N         80.27257      104.15814      -19.45286
C         79.22429      103.30389      -18.88947
C         79.71471      101.89679      -18.52941
O         78.90857      101.13073      -18.01821
C         78.63332      104.00533      -17.64079
C         77.91294      105.33257      -17.96246
C         76.62683      105.11456      -18.78145
C         75.90363      106.43324      -19.07678
N         74.67495      106.18820      -19.83420
H         81.07659      104.35450      -18.84993
H         78.41010      103.13496      -19.62010
H         79.46092      104.20636      -16.92451
H         77.90170      103.34204      -17.12897
H         78.60305      106.02257      -18.49423
H         77.62713      105.81040      -16.99948
H         75.94509      104.44737      -18.20882
H         76.85932      104.63789      -19.75373
H         76.57426      107.09511      -19.66887
H         75.64992      106.94755      -18.12354
H         74.01893      105.59735      -19.27280
H         74.21106      107.10087      -20.04517
H         74.89540      105.70544      -20.73588
N         80.97860      101.45330      -18.79959
C         81.41828      100.08593      -18.50617
C         81.39813       99.80439      -17.01686
O         82.07016      100.49630      -16.26460
C         82.83713       99.83479      -19.06830
C         83.43544       98.45327      -18.71829
C         82.60193       97.24442      -19.09127
O         82.22281       96.48987      -18.21006
O         82.34904       96.91717      -20.37525
H         81.63758      102.08582      -19.27061
H         80.73972       99.37630      -19.02967
H         83.53438      100.60564      -18.67212
H         82.80790       99.95768      -20.16211
H         83.60931       98.42863      -17.62063
H         84.43038       98.36394      -19.20472
N         80.68436       98.74492      -16.54024
C         80.68702       98.33119      -15.15282
H         79.64992       98.34387      -14.76022
H         81.08132       97.29396      -15.08773
H         81.32173       98.98242      -14.51687
H         80.13497       98.17064      -17.19739
Ca        82.77958       98.30780      -22.06958
O         80.55835       95.60157      -22.52641
H         80.24148       95.48541      -21.59532
H         81.42745       95.12758      -22.55359
O         82.03297       96.34503      -25.69415
H         81.07104       96.12070      -25.76500
H         82.50130       95.50155      -25.91692
O         80.30313       98.86079      -24.71602
H         80.02856       99.70267      -24.27325
H         80.05732       98.98854      -25.66679

Ca 1.0



