%chk=apoCaM-CA-Ng.loop2.water4.frame1218.chk
%nprocshared=20
%mem=10GB
%nosave
#b3lyp/svp scf=(tight,noincore,xqc) Test 
#IOP(5/87=12) Density=Current Pop=(MK,readradii) iop(6/33=2) iop(6/42=6)

apoCaM-CA-Ng.loop2.water4.frame1218 

   -2  1 
C         30.65427      -11.27871       94.56309
C         30.38505      -11.14386       93.08413
O         29.59033      -10.28319       92.73588
H         31.08711      -10.33260       94.94876
H         29.69408      -11.47177       95.08646
H         31.33253      -12.10859       94.83012
N         30.94717      -11.94399       92.12888
C         31.93033      -12.99393       92.39286
C         32.09427      -13.95631       91.21892
O         31.61336      -13.68081       90.13096
C         33.30294      -12.37690       92.77713
C         33.89285      -11.46147       91.72638
O         35.07535      -10.86386       91.96516
O         33.31484      -11.23747       90.67385
H         30.62495      -11.79834       91.16238
H         31.53121      -13.62754       93.21363
H         34.02950      -13.19100       92.98303
H         33.20853      -11.77771       93.70267
N         32.70627      -15.16230       91.43365
C         32.87391      -16.25158       90.46971
C         34.05564      -16.04538       89.53968
O         34.97715      -16.84872       89.59079
C         31.58408      -16.57875       89.69911
H         33.00513      -15.36974       92.39914
H         33.11153      -17.16371       91.06434
H         31.73914      -17.48576       89.07676
H         30.75391      -16.77704       90.40913
H         31.28316      -15.76347       89.01126
N         34.09090      -15.02082       88.64601
C         35.17327      -14.82610       87.68135
C         35.87821      -13.49968       87.87429
O         35.42901      -12.67451       88.65871
C         34.63654      -14.92956       86.23161
C         33.57112      -13.91751       85.85408
O         33.16340      -13.88741       84.70434
O         32.99358      -13.12134       86.77711
H         33.30553      -14.36918       88.64662
H         35.94555      -15.61446       87.81451
H         34.22602      -15.94835       86.06415
H         35.49122      -14.79907       85.53378
N         37.02246      -13.23694       87.17471
C         37.70647      -11.95985       87.24675
C         36.91657      -10.88728       86.54069
O         35.91975      -11.19043       85.89904
H         37.43215      -13.97054       86.57723
H         38.69576      -12.02362       86.74512
H         37.87250      -11.69627       88.31405
N         37.30488       -9.58783       86.64212
C         36.54406       -8.48659       86.06079
C         37.39162       -7.59863       85.15793
O         36.81887       -6.72437       84.52062
C         35.96016       -7.66575       87.22062
C         35.10757       -8.56746       88.13037
N         35.00507       -8.02684       89.47851
O         33.83148       -8.72273       87.58251
H         38.12053       -9.36896       87.23443
H         35.70837       -8.87664       85.44071
H         35.35623       -6.80040       86.86678
H         36.82179       -7.26802       87.80006
H         35.97101       -7.98019       89.87842
H         34.49171       -8.72884       90.05790
N         38.75185       -7.71603       85.07185
C         39.55668       -6.83070       84.24549
C         39.42332       -7.14716       82.76872
O         38.75815       -8.11531       82.42880
H         39.25688       -8.40098       85.64872
H         40.62923       -6.96259       84.50692
H         39.26906       -5.78038       84.46832
N         40.03672       -6.40275       81.80096
C         40.80599       -5.18312       82.04200
C         40.12267       -3.96317       81.41001
O         40.62313       -2.86262       81.59177
C         42.25223       -5.34825       81.51176
C         42.97675       -6.52598       82.17234
O         42.24611       -5.54757       80.12059
H         39.92819       -6.71161       80.82154
H         40.87670       -4.97090       83.12741
H         42.84043       -4.43382       81.76785
H         42.36020       -4.65688       79.69728
H         42.46506       -7.48496       81.94246
H         44.01799       -6.58945       81.78910
H         43.01536       -6.39233       83.27408
N         38.97931       -4.07988       80.66386
C         38.25799       -2.96637       80.04533
C         36.82538       -2.96991       80.58904
O         36.23935       -4.04238       80.64265
C         38.29043       -3.12247       78.49517
C         39.76185       -3.00520       78.00745
C         37.39596       -2.06819       77.80996
C         39.94272       -3.09294       76.49190
H         38.57625       -5.01162       80.50088
H         38.75809       -2.01145       80.29027
H         37.88719       -4.12360       78.22269
H         40.35918       -3.82252       78.46362
H         40.19127       -2.03529       78.34387
H         37.35187       -2.23892       76.71614
H         36.34766       -2.14409       78.16627
H         37.77304       -1.04261       77.99801
H         39.45573       -2.23643       75.98175
H         41.02548       -3.04101       76.25026
H         39.53018       -4.04652       76.10372
N         36.17132       -1.85506       81.04270
C         36.63230       -0.47638       80.91339
C         35.47529        0.41422       80.45550
O         34.45042        0.45097       81.12288
C         37.21665        0.00349       82.25495
C         37.88826        1.35635       82.17790
O         37.93972        1.98688       81.13258
O         38.47237        1.86417       83.27884
H         35.25114       -1.99912       81.48901
H         37.45029       -0.40239       80.17659
H         37.99691       -0.72242       82.57294
H         36.42177        0.02475       83.02994
N         35.59797        1.20208       79.34959
C         34.59253        2.18599       78.94433
C         33.54290        1.55189       78.02688
O         33.96536        0.90412       77.07792
C         35.29835        3.31563       78.14367
C         34.38855        4.49715       77.89328
C         33.92877        4.79631       76.59952
C         33.99526        5.31791       78.96653
C         33.07506        5.88574       76.38975
C         33.14738        6.40766       78.75129
C         32.68413        6.68930       77.46447
H         36.50464        1.19748       78.85604
H         34.16657        2.66157       79.85274
H         35.67378        2.89413       77.18406
H         36.18506        3.69400       78.69808
H         34.21648        4.18057       75.75699
H         34.34485        5.11183       79.97057
H         32.71308        6.10624       75.39395
H         32.84806        7.03214       79.58336
H         32.02346        7.53107       77.30077
N         32.18539        1.76397       78.13738
C         31.53117        2.64362       79.09918
C         31.14966        1.92594       80.38143
O         30.75570        2.57979       81.33645
C         30.25476        3.11117       78.36600
C         30.55140        2.77870       76.90614
C         31.26798        1.45203       77.06552
H         32.18028        3.51538       79.27791
H         29.40143        2.45113       78.64544
H         29.95860        4.16339       78.56755
H         29.65394        2.74549       76.25339
H         31.27875        3.51408       76.49682
H         30.54606        0.67852       77.41824
H         31.74455        1.09168       76.12992
N         31.19172        0.56422       80.44270
C         30.87059       -0.21635       81.62673
C         29.39616       -0.04237       82.00724
O         28.56021       -0.47474       81.22534
C         31.18801       -1.69908       81.31161
C         31.19313       -2.62456       82.52605
C         31.62091       -4.00235       82.09853
O         32.76990       -4.52748       82.56562
O         30.94588       -4.63995       81.30528
H         31.49104        0.04584       79.60512
H         31.57174        0.09925       82.41553
H         32.21439       -1.73902       80.88169
H         30.48303       -2.07901       80.53591
H         30.19097       -2.67087       83.00148
H         31.92572       -2.23249       83.26419
N         28.94762        0.56399       83.14945
C         29.75129        1.22635       84.15846
H         30.82829        1.25723       83.93810
H         29.41233        2.28107       84.24538
H         29.60300        0.72798       85.13821
H         27.92757        0.58830       83.30978
Ca        33.42153      -10.94849       87.25698
O         29.56631      -11.12006       88.86733
H         29.20864      -10.53945       89.58521
H         29.17121      -12.01044       89.04459
O         30.30197      -11.65532       85.98917
H         30.68207      -12.10999       85.19642
H         29.57731      -12.25667       86.29485
O         30.80154       -8.77858       87.42603
H         31.05462       -7.97801       86.90161
H         30.42901       -8.41623       88.26889
O         32.78313      -10.23107       84.50316
H         33.15421      -11.14556       84.58016
H         33.53195       -9.63964       84.76529

Ca 1.0



