%chk=apoCaM-CA-Ng.loop2.water4.frame38.chk
%nprocshared=20
%mem=10GB
%nosave
#b3lyp/svp scf=(tight,noincore,xqc) Test 
#IOP(5/87=12) Density=Current Pop=(MK,readradii) iop(6/33=2) iop(6/42=6)

apoCaM-CA-Ng.loop2.water4.frame38 

   -2  1 
C         65.16921       49.26660       59.87089
C         65.75444       48.87273       61.19329
O         66.96999       48.80516       61.31060
H         64.55850       50.18563       59.99252
H         65.97205       49.46859       59.12914
H         64.52694       48.44611       59.48910
N         64.93799       48.62909       62.25686
C         65.45455       48.26233       63.56924
C         65.97923       46.83480       63.57972
O         66.91799       46.57347       64.31520
C         64.38783       48.46312       64.65902
C         64.97021       48.31310       66.03955
O         65.87327       49.04886       66.40823
O         64.49158       47.37723       66.87969
H         63.92161       48.76053       62.13570
H         66.28121       48.97019       63.81012
H         63.55188       47.74653       64.50855
H         63.98383       49.49603       64.57979
N         65.43046       45.86304       62.78289
C         65.94749       44.49728       62.67985
C         67.36707       44.47042       62.12197
O         68.03827       43.45552       62.24566
C         65.82571       43.74658       64.01480
H         64.62543       46.10364       62.18570
H         65.31799       43.92908       61.95883
H         64.76563       43.74374       64.34640
H         66.13952       42.68766       63.88298
H         66.45435       44.19550       64.80826
N         67.86338       45.54083       61.43301
C         69.18340       45.60699       60.82254
C         70.31330       45.60626       61.85162
O         71.46091       45.39908       61.48272
C         69.30977       44.53676       59.71380
C         70.45914       44.83693       58.79899
O         71.30665       43.99733       58.54696
O         70.51569       46.06329       58.25048
H         67.26229       46.35943       61.28496
H         69.24202       46.59610       60.31284
H         68.39599       44.60251       59.08198
H         69.37263       43.50772       60.12441
N         70.06818       45.93671       63.15356
C         71.07860       46.02792       64.19615
C         72.07306       47.16892       64.03771
O         72.88980       47.33171       64.93313
H         69.10556       46.13169       63.44540
H         71.61549       45.05937       64.27828
H         70.55336       46.20789       65.16029
N         72.09085       47.99339       62.95172
C         73.04484       49.08605       62.79963
C         72.71661       50.22145       63.73665
O         71.59654       50.71341       63.69857
C         73.02373       49.62046       61.35090
C         73.56917       48.58932       60.39723
N         74.86105       48.18951       60.48907
O         72.84690       48.11778       59.53279
H         71.42376       47.84024       62.18587
H         74.07502       48.72160       63.00223
H         73.66244       50.52699       61.26232
H         71.98426       49.90642       61.07288
H         75.49107       48.59393       61.19793
H         75.24212       47.48362       59.84317
N         73.68734       50.75400       64.53482
C         73.48518       51.96570       65.30955
C         74.22876       53.11267       64.66285
O         74.96746       52.90862       63.70762
H         74.63760       50.35397       64.51038
H         73.78675       51.81694       66.36791
H         72.41042       52.25045       65.30847
N         73.98937       54.38310       65.08273
C         74.48977       55.57813       64.39438
C         73.77558       55.84416       63.04474
O         73.91653       56.93916       62.51696
C         74.43263       56.80968       65.34767
C         73.02564       57.22533       65.80404
O         75.22019       56.53454       66.47973
H         73.38684       54.49579       65.91030
H         75.57488       55.45459       64.18520
H         74.88087       57.66798       64.79262
H         75.54027       57.40453       66.83578
H         73.10536       58.13609       66.43697
H         72.37999       57.46205       64.93528
H         72.53902       56.44349       66.42070
N         72.99796       54.89956       62.43197
C         72.20095       55.08992       61.21908
C         72.61245       54.09048       60.12812
O         73.57155       53.35538       60.33023
C         70.69537       54.91100       61.60468
C         70.39673       53.48371       62.15292
C         70.28908       56.00027       62.61323
C         68.91046       53.18867       62.31923
H         72.91523       53.97400       62.85040
H         72.33138       56.11360       60.80294
H         70.07994       55.07169       60.69734
H         70.88826       53.32458       63.13497
H         70.78985       52.72517       61.44566
H         70.84645       55.88543       63.56725
H         70.50872       57.00523       62.19363
H         69.20451       55.96330       62.83171
H         68.78737       52.14404       62.67694
H         68.44632       53.86188       63.06604
H         68.39231       53.29304       61.34296
N         71.87483       53.95260       58.97878
C         72.09322       52.88015       58.00828
C         72.08351       53.37916       56.54803
O         72.21066       52.55866       55.65212
C         71.01533       51.80083       58.27852
C         71.27094       50.44930       57.66162
O         70.40080       49.44951       57.89981
O         72.27262       50.22456       57.00134
H         71.03228       54.53154       58.85344
H         73.07628       52.39702       58.20179
H         70.01794       52.17935       57.97870
H         70.98594       51.60917       59.37190
N         71.99006       54.70774       56.22755
C         72.08488       55.20964       54.85291
C         70.84106       54.88219       54.02213
O         69.76299       55.30474       54.41912
C         72.23901       56.74876       54.86177
C         72.47608       57.27402       53.46500
C         73.67631       56.97766       52.79630
C         71.49882       58.04523       52.81319
C         73.89408       57.44308       51.49726
C         71.71754       58.50189       51.50954
C         72.91432       58.20202       50.85279
H         71.93915       55.40067       56.98610
H         73.00933       54.79207       54.40426
H         73.09096       57.05737       55.50521
H         71.31724       57.19456       55.29892
H         74.44327       56.38720       53.28194
H         70.56279       58.27852       53.30520
H         74.82160       57.21185       50.98984
H         70.95770       59.08582       51.00675
H         73.08256       58.55666       49.84438
N         70.89476       54.20321       52.82846
C         69.74479       54.02063       51.94633
C         68.74766       52.99957       52.46314
O         67.76741       52.74566       51.77670
C         70.38190       53.60316       50.61847
C         71.57289       52.79882       51.08414
C         72.09770       53.65608       52.23584
H         69.20245       54.97771       51.77559
H         69.69951       53.10289       49.89730
H         70.78893       54.51776       50.12824
H         71.17950       51.84362       51.50156
H         72.32648       52.56389       50.30343
H         72.67074       53.00568       52.92950
H         72.72544       54.49726       51.87286
N         68.89401       52.42442       53.68562
C         67.90856       51.55215       54.28805
C         67.13173       52.36893       55.30228
O         65.91172       52.40135       55.22408
C         68.60437       50.35356       54.94309
C         69.47658       49.55286       53.95697
C         70.06995       48.38677       54.68269
O         71.40011       48.27757       54.86557
O         69.33087       47.55628       55.18829
H         69.70124       52.66610       54.27072
H         67.19328       51.15957       53.52984
H         67.82056       49.69347       55.37720
H         69.25292       50.71308       55.76947
H         70.29343       50.19835       53.56608
H         68.86923       49.18548       53.10246
N         67.78600       53.11920       56.23674
C         67.12033       54.00189       57.17148
H         66.01509       53.95821       57.08320
H         67.41009       53.73042       58.20716
H         67.44375       55.04669       56.97262
H         68.81450       53.11155       56.26466
Ca        71.79370       46.96837       56.64745
O         75.05225       48.26648       57.23492
H         74.92191       49.10383       57.74662
H         75.99652       48.30136       56.93995
O         71.45521       44.52672       55.00302
H         70.70710       45.14311       54.80159
H         71.17272       44.05887       55.82814
O         74.06002       46.77810       54.69356
H         74.95634       47.17705       54.56359
H         74.23700       45.82335       54.88548
O         74.14843       45.17697       57.66479
H         73.72933       44.85310       58.50064
H         74.04270       44.42724       57.02661

Ca 1.0



