%chk=apoCaM-CA-Ng.loop4.water5.frame535.chk
%nprocshared=20
%mem=10GB
%nosave
#b3lyp/svp scf=(tight,noincore,xqc) Test 
#IOP(5/87=12) Density=Current Pop=(MK,readradii) iop(6/33=2) iop(6/42=6)

apoCaM-CA-Ng.loop4.water5.frame535 

   -3  1 
C         85.18985        1.33119       72.26261
C         85.54874        1.02968       73.68748
O         85.47522        1.93127       74.50857
H         84.14020        1.69251       72.21814
H         85.86246        2.12026       71.86682
H         85.27869        0.43024       71.62036
N         85.92917       -0.23022       74.05985
C         86.27908       -0.62978       75.42585
C         85.08904       -0.58433       76.39237
O         85.27699       -0.88351       77.56166
C         87.47236        0.20043       75.95407
C         88.63496        0.17050       75.00029
O         89.08492        1.31796       74.45781
O         89.17022       -0.88694       74.70758
H         85.98977       -0.95820       73.33153
H         86.60969       -1.69255       75.39379
H         87.80479       -0.20098       76.93545
H         87.17064        1.25461       76.11403
N         83.83642       -0.24172       75.97350
C         82.64755       -0.18832       76.82567
C         82.27479       -1.61235       77.23445
O         82.23781       -2.46091       76.35399
C         81.47207        0.48135       76.02672
C         81.86716        1.92651       75.60688
C         80.17067        0.52284       76.85246
C         80.85558        2.62692       74.70167
H         83.69823       -0.03283       74.97970
H         82.84622        0.45890       77.70653
H         81.28389       -0.12596       75.11320
H         82.81860        1.92529       75.04116
H         82.01372        2.53573       76.51943
H         79.87023       -0.49321       77.17684
H         80.29416        1.17695       77.74163
H         79.32790        0.91640       76.25188
H         79.89041        2.79311       75.21831
H         81.25602        3.62318       74.41573
H         80.69293        2.03271       73.77797
N         81.91015       -1.97922       78.50052
C         81.74269       -1.06005       79.62332
C         83.05614       -0.69527       80.28658
O         83.09411        0.30621       80.98645
C         80.81073       -1.67917       80.68989
C         79.47058       -2.05957       80.11764
O         78.74422       -1.21070       79.62613
O         79.06579       -3.34426       80.14785
H         81.61014       -2.95932       78.62953
H         81.24230       -0.14060       79.26903
H         80.64414       -0.95520       81.51578
H         81.29082       -2.58849       81.11510
N         84.14998       -1.50198       80.18359
C         85.38704       -1.27707       80.91276
C         85.16770       -1.42304       82.40377
O         84.64147       -2.44318       82.82688
H         84.10518       -2.34253       79.58956
H         85.81523       -0.28505       80.64918
H         86.11873       -2.05585       80.60990
N         85.57434       -0.44963       83.26764
C         85.39623       -0.53648       84.71897
C         83.94872       -0.31462       85.17347
O         83.72544       -0.26183       86.37561
C         86.38271        0.41075       85.45822
C         86.28611        1.88638       85.16876
O         87.10792        2.73298       85.81754
O         85.50631        2.32958       84.34466
H         86.08879        0.35315       82.87610
H         85.70225       -1.55122       85.05943
H         87.41887        0.09608       85.20769
H         86.25213        0.26688       86.55343
N         82.90688       -0.21012       84.29502
C         81.53559        0.02914       84.71292
C         81.29070        1.46694       85.11238
O         80.17668        1.77040       85.51289
H         83.06270       -0.33261       83.29310
H         81.26591       -0.67214       85.53185
H         80.85361       -0.17049       83.85860
N         82.25998        2.42095       84.98103
C         82.07949        3.83123       85.29347
C         81.05515        4.47327       84.36283
O         80.55983        5.54932       84.66624
C         81.80869        4.03010       86.80249
C         82.91939        3.35445       87.63464
C         82.71753        3.52748       89.11499
N         83.67688        4.09925       89.88021
O         81.68946        3.12129       89.63582
H         83.17677        2.15865       84.61286
H         83.03833        4.35903       85.08532
H         80.82349        3.60238       87.08142
H         81.78950        5.11885       87.02999
H         83.90749        3.76739       87.33362
H         82.92857        2.26326       87.42900
H         84.55991        4.43044       89.46448
H         83.54429        4.19747       90.89749
N         80.80092        3.91501       83.13947
C         79.94444        4.50373       82.11637
C         80.75834        4.91511       80.89967
O         80.15638        5.40711       79.95381
C         78.83408        3.50287       81.66958
C         79.40038        2.20176       81.05969
C         77.87937        3.17557       82.81964
H         81.28993        3.04802       82.88028
H         79.45377        5.42625       82.49841
H         78.22580        4.00003       80.88031
H         78.57212        1.56592       80.68272
H         80.06809        2.42209       80.19958
H         79.96751        1.61030       81.80720
H         77.06279        2.51543       82.45539
H         78.41352        2.66170       83.64428
H         77.42006        4.10917       83.20806
N         82.11351        4.74192       80.83271
C         82.88267        5.03996       79.63589
C         83.79073        6.23169       79.88697
O         83.88222        6.71230       81.00913
C         83.57495        3.73279       79.17547
C         84.28218        3.80518       77.84406
N         85.53729        3.32424       77.70418
O         83.70142        4.25706       76.86904
H         82.63705        4.37389       81.63998
H         82.19600        5.35519       78.82039
H         82.77177        2.97303       79.05764
H         84.26708        3.36539       79.96546
H         86.02397        2.88760       78.49858
H         86.01002        3.35514       76.78912
N         84.38246        6.84260       78.82948
C         85.09367        8.11725       78.91011
C         85.35822        8.67494       77.51478
O         85.09256        7.99639       76.53036
C         86.40303        8.01426       79.72660
C         87.38047        7.01907       79.15205
C         87.24909        5.64978       79.43645
C         88.44432        7.45277       78.34384
C         88.16762        4.73142       78.92051
C         89.35162        6.52880       77.81682
C         89.21723        5.16671       78.10220
O         90.10115        4.28732       77.58923
H         84.21185        6.42408       77.90893
H         84.42017        8.85152       79.40598
H         86.20796        7.75732       80.78933
H         86.87340        9.02029       79.75753
H         86.44637        5.29306       80.06905
H         88.56524        8.50386       78.11282
H         88.06598        3.68088       79.15715
H         90.16264        6.87168       77.18913
H         90.03844        3.33653       77.76056
N         85.85421        9.93485       77.35014
C         86.07633       10.50768       76.03018
C         87.55360       10.81455       75.86161
O         88.01681       11.77670       76.45830
C         85.20192       11.76074       75.82781
C         83.70518       11.41664       75.90330
C         82.85743       12.64074       75.71700
O         82.07118       12.70846       74.78577
O         82.94611       13.66322       76.58925
H         86.06713       10.51132       78.17873
H         85.76116        9.79536       75.25366
H         85.41621       12.19742       74.82705
H         85.45099       12.51728       76.60497
H         83.46025       10.97277       76.89183
H         83.46336       10.67066       75.11363
N         88.40322       10.02169       75.13771
C         88.02493        8.75153       74.51300
C         87.08359        8.92573       73.33062
O         86.82538       10.04727       72.91345
C         89.28004        7.94620       74.09951
C         90.08995        8.58736       72.95935
C         91.31770        7.77608       72.66240
O         92.53867        8.32827       72.79585
O         91.21733        6.61616       72.29587
H         89.39831       10.29288       75.13683
H         87.51282        8.14512       75.29220
H         88.97272        6.92459       73.78613
H         89.93068        7.83620       74.99362
H         90.40298        9.61392       73.23931
H         89.47100        8.64944       72.03884
N         86.51672        7.83191       72.75072
C         85.60014        7.93431       71.63714
H         84.71315        8.53560       71.93009
H         86.10583        8.41129       70.77146
H         85.25721        6.92109       71.33649
H         86.72931        6.89262       73.11918
Ca        90.16646        0.59609       71.63606
O         92.51919       -1.20347       72.83386
H         92.54295       -2.13834       72.50844
H         92.94060       -1.24079       73.72903
O         93.02108        1.81338       71.14905
H         93.57669        1.09504       70.75463
H         93.62558        2.27630       71.78192
O         89.65247       -2.43490       71.58589
H         89.57338       -2.71869       70.64057
H         88.73129       -2.18352       71.84840
O         92.03583        1.79096       74.28783
H         92.04663        2.71200       73.92520
H         91.94510        1.91175       75.26631
O         90.02445        3.68722       71.53659
H         89.36765        3.65742       72.27697
H         90.89235        3.85660       71.98167

Ca 1.0



