%chk=apoCaM-CA-Ng.loop3.water3.frame689.chk
%nprocshared=20
%mem=10GB
%nosave
#b3lyp/svp scf=(tight,noincore,xqc) Test 
#IOP(5/87=12) Density=Current Pop=(MK,readradii) iop(6/33=2) iop(6/42=6)

apoCaM-CA-Ng.loop3.water3.frame689 

   0  1 
C         95.69935       82.47122      100.12172
C         96.52194       83.00579      101.25799
O         97.09291       84.07856      101.12216
H         94.88596       83.18998       99.88690
H         96.33849       82.33530       99.22543
H         95.23622       81.49488      100.37901
N         96.60059       82.32165      102.43296
C         97.32296       82.83068      103.59776
C         98.82924       82.81738      103.33905
O         99.24854       82.20451      102.36577
C         96.92587       81.96091      104.82263
C         97.13203       82.55713      106.18453
O         96.72236       81.86231      107.26066
O         97.58018       83.67823      106.33647
H         96.07106       81.43911      102.51492
H         96.97472       83.86936      103.76540
H         97.41925       80.96726      104.74899
H         95.83240       81.78472      104.78510
N         99.70621       83.46234      104.16479
C        101.15588       83.40530      103.99281
C        101.82073       82.67547      105.15407
O        102.94812       82.23114      104.98776
C        101.74575       84.81922      103.82176
C        101.08081       85.57832      102.66205
C        101.71797       86.95677      102.44846
C        100.99875       87.71856      101.32545
N        101.63255       89.01263      101.07559
H         99.34324       84.02864      104.93613
H        101.39825       82.81690      103.08114
H        102.83825       84.73203      103.63082
H        101.59852       85.39968      104.76028
H         99.99956       85.71199      102.88689
H        101.18108       84.98582      101.72658
H        102.78900       86.82324      102.18038
H        101.65547       87.55131      103.38650
H         99.93504       87.87917      101.61272
H        101.02176       87.11698      100.38971
H        101.61847       89.59741      101.94246
H        102.61967       88.87166      100.75957
H        101.10595       89.51088      100.32188
N        101.19386       82.51592      106.35693
C        101.73300       81.74525      107.46913
C        100.74355       80.67818      107.94172
O        101.06855       79.97916      108.89132
C        102.17779       82.69954      108.60078
C        101.14146       83.69956      109.02673
O        100.08817       83.33623      109.51182
O        101.38607       85.01635      108.88765
H        100.28911       82.97319      106.52378
H        102.65085       81.19507      107.16510
H        103.05303       83.27365      108.22760
H        102.51761       82.11150      109.48147
N         99.54911       80.44662      107.31125
C         98.63945       79.38469      107.71596
C         98.01304       79.58692      109.08257
O         97.41048       78.63976      109.56760
H         99.29392       80.98084      106.47219
H         99.20954       78.43013      107.71462
H         97.81550       79.27961      106.97637
N         98.09459       80.77134      109.76251
C         97.59695       80.94735      111.12321
C         96.43973       81.98582      111.15918
O         96.93179       83.29604      111.24112
C         98.76797       81.38107      112.04517
C         99.93027       80.41869      112.09649
N        101.04912       80.76393      112.77441
O         99.88017       79.33888      111.52688
H         98.53862       81.57504      109.30866
H         97.18622       79.98432      111.49893
H         98.40595       81.53995      113.08208
H         99.16686       82.34743      111.67229
H        101.11408       81.67684      113.24911
H        101.85853       80.12720      112.81183
N         95.52895       81.69975      112.27950
C         94.50943       82.72354      112.55247
C         93.68208       83.11286      111.34591
O         93.12876       82.24482      110.68647
H         96.07430       81.56127      113.16212
H         94.98191       83.61889      113.01488
H         93.81408       82.29986      113.30837
N         93.49433       84.43319      111.05620
C         92.64245       84.91858      109.97079
C         93.25905       84.65414      108.60437
O         94.32358       84.05940      108.52772
C         92.40535       86.44629      110.13300
C         91.69629       86.81241      111.41462
C         90.42859       86.27840      111.70832
C         92.27969       87.72223      112.31160
C         89.76215       86.64273      112.88087
C         91.60682       88.09187      113.48019
C         90.34834       87.55420      113.76990
O         89.71114       87.92329      114.89916
H         93.92774       85.12860      111.68362
H         91.65542       84.41096      110.01920
H         91.75796       86.82983      109.32093
H         93.37969       86.97714      110.05660
H         89.95026       85.58314      111.03073
H         93.24891       88.15710      112.10140
H         88.78763       86.22097      113.09299
H         92.06253       88.80187      114.15853
H         88.83739       87.57827      115.13244
N         92.63980       85.12391      107.47892
C         93.16463       85.07761      106.11739
C         94.49136       85.82707      106.01777
O         95.45665       85.42031      106.64199
C         93.28584       83.62652      105.56543
C         93.77085       83.60203      104.08621
C         91.96248       82.85663      105.70830
C         92.87040       84.30842      103.06699
H         91.72841       85.59297      107.58218
H         92.41943       85.59746      105.47931
H         94.04431       83.07725      106.16445
H         93.88270       82.54572      103.76102
H         94.76614       84.07938      104.02923
H         91.14092       83.35886      105.15772
H         92.08003       81.82281      105.31759
H         91.66994       82.78049      106.77614
H         91.86445       83.84520      103.02975
H         92.77421       85.38950      103.28850
H         93.32722       84.21837      102.05851
N         94.62245       86.89829      105.18411
C         95.90483       87.55381      104.93104
C         95.87142       89.06218      105.15049
O         96.88863       89.69286      104.88403
C         96.31716       87.23880      103.48408
O         95.37121       87.74974      102.58387
H         93.80510       87.20377      104.63610
H         96.70070       87.14211      105.58838
H         96.38393       86.13256      103.37909
H         97.31630       87.67564      103.26437
H         95.53282       87.29044      101.71931
N         94.76549       89.72753      105.59697
C         94.71175       91.19006      105.65854
C         95.74120       91.78221      106.62574
O         96.28472       91.03582      107.42650
C         93.29872       91.64084      106.06135
H         93.91643       89.19234      105.83469
H         94.93541       91.54412      104.62968
H         92.55607       91.24592      105.33591
H         93.04857       91.25464      107.07285
H         93.20051       92.74264      106.08432
N         96.10309       93.10732      106.61903
C         95.62480       94.11403      105.67158
C         94.96947       95.29190      106.38469
O         95.24821       95.48860      107.56084
C         96.80615       94.61282      104.83552
H         96.81181       93.40999      107.30759
H         94.89511       93.66367      104.98533
H         97.57405       95.07842      105.49069
H         97.26992       93.76004      104.29571
H         96.48063       95.36395      104.08743
N         94.04588       96.11108      105.79127
C         93.50675       95.92998      104.44401
C         92.15182       95.23741      104.50654
O         91.61749       94.92145      103.44975
C         93.35996       97.27732      103.69567
C         94.67535       98.01724      103.41028
C         95.33855       98.53546      104.65210
O         94.69228       99.41077      105.44635
O         96.47284       98.18612      104.93534
H         93.60845       96.83964      106.37771
H         94.16260       95.28200      103.83468
H         92.66203       97.94706      104.24551
H         92.90377       97.06395      102.70313
H         94.44761       98.89409      102.76553
H         95.36056       97.34795      102.84587
N         91.53006       94.95090      105.68674
C         90.25837       94.26597      105.73615
H         89.49165       94.84580      105.18008
H         90.35982       93.25392      105.28985
H         89.92812       94.15752      106.79114
H         91.95241       95.21809      106.58756
Ca        97.11170       84.09719      109.12685
O         96.02752       86.98228      109.13313
H         95.70912       87.79832      108.67184
H         96.25396       87.28389      110.04825
O         98.50489       86.05036      111.15356
H         98.58428       85.50536      111.97612
H         99.12705       85.62410      110.51310
O         98.79405       86.55784      107.46040
H         99.70344       86.48222      107.07618
H         98.57737       87.52211      107.39754

Ca 1.0



