%chk=apoCaM-CA-Ng.loop2.water4.frame424.chk
%nprocshared=20
%mem=10GB
%nosave
#b3lyp/svp scf=(tight,noincore,xqc) Test 
#IOP(5/87=12) Density=Current Pop=(MK,readradii) iop(6/33=2) iop(6/42=6)

apoCaM-CA-Ng.loop2.water4.frame424 

   -2  1 
C         91.71689       90.52105       72.07819
C         93.05000       90.90124       71.50171
O         93.80861       90.02457       71.11582
H         90.90861       90.95220       71.45006
H         91.59493       89.41701       72.10479
H         91.62245       90.91668       73.11124
N         93.40219       92.21303       71.42068
C         94.65385       92.68467       70.84072
C         95.49010       93.33050       71.92533
O         94.99076       94.20196       72.62518
C         94.33939       93.68407       69.71015
C         95.55712       94.15784       68.95312
O         96.79200       93.70586       69.24826
O         95.41979       94.95540       68.04021
H         92.74457       92.91852       71.78977
H         95.22254       91.83999       70.39227
H         93.81154       94.56604       70.13496
H         93.66264       93.19219       68.97835
N         96.78756       92.95297       72.11403
C         97.61731       93.51668       73.16937
C         97.41419       92.78660       74.48296
O         97.96715       93.23082       75.47932
C         99.09569       93.45114       72.77391
H         97.19967       92.24644       71.48478
H         97.35886       94.59143       73.30033
H         99.41519       92.39564       72.63399
H         99.25773       94.00602       71.82591
H         99.72817       93.91427       73.56170
N         96.66787       91.64265       74.56163
C         96.45715       90.88827       75.78751
C         97.80633       90.43732       76.34339
O         98.14650       90.79260       77.46418
C         95.63645       91.75021       76.78964
C         95.04683       90.95123       77.91500
O         94.41757       91.50626       78.80014
O         95.06587       89.61325       77.84308
H         96.23327       91.25384       73.71227
H         95.85540       89.99014       75.51759
H         94.77432       92.20846       76.25630
H         96.26306       92.57115       77.19393
N         98.66193       89.71130       75.56326
C        100.04672       89.44891       75.93655
C        100.43402       87.98702       75.99679
O        101.60744       87.73679       76.23481
H         98.35418       89.41652       74.62372
H        100.29557       89.89978       76.92127
H        100.69223       89.94103       75.17766
N         99.53946       86.96971       75.82633
C         99.91248       85.55989       75.93279
C         99.56000       84.82784       74.64478
O         98.42370       84.90048       74.19895
C         99.23726       84.95215       77.17478
C         99.69626       83.53318       77.42826
N        100.42788       83.22709       78.52698
O         99.40990       82.65205       76.63200
H         98.54751       87.19168       75.65633
H        101.00639       85.45659       76.11269
H         98.13050       84.98634       77.08978
H         99.52936       85.58144       78.04553
H        100.69495       83.95226       79.20889
H        100.74400       82.25959       78.69145
N        100.50815       84.08693       74.00272
C        100.30991       83.40400       72.73238
C         99.18794       82.38785       72.75474
O         99.18865       81.51606       73.61149
H        101.44479       84.01004       74.42851
H        101.24836       82.86290       72.48161
H        100.13494       84.15636       71.93497
N         98.22297       82.41965       71.78618
C         97.12369       81.45760       71.68812
C         95.75587       82.14101       71.78355
O         94.75124       81.44268       71.73413
C         97.26575       80.60621       70.39606
C         97.10906       81.39181       69.08484
O         98.48733       79.90781       70.40411
H         98.28786       83.14653       71.05819
H         97.17249       80.74065       72.53675
H         96.45746       79.84234       70.40407
H         99.21770       80.56418       70.25457
H         96.11050       81.86759       69.03570
H         97.89047       82.17192       68.98146
H         97.19806       80.69383       68.22476
N         95.64050       83.48533       71.98677
C         94.38938       84.19423       72.23142
C         94.38009       84.57922       73.69702
O         95.33101       85.19214       74.16827
C         94.25778       85.44515       71.28272
C         93.49936       85.11919       69.96860
C         93.50041       86.62210       71.94025
C         94.11155       84.02193       69.11298
H         96.49430       84.05463       72.07543
H         93.49765       83.54774       72.07362
H         95.27298       85.83973       71.05292
H         93.45025       86.03962       69.34451
H         92.45431       84.82285       70.21429
H         92.47649       86.32083       72.24619
H         94.04735       87.00451       72.82779
H         93.42753       87.47402       71.23398
H         94.10149       83.05722       69.65449
H         93.49453       83.90043       68.19589
H         95.14555       84.29185       68.81779
N         93.27724       84.31410       74.45447
C         93.11643       84.76990       75.82479
C         92.69516       83.63309       76.76038
O         92.46249       83.89363       77.92919
C         92.12519       85.95118       75.78000
C         92.08330       86.80589       77.01617
O         91.51739       87.88617       76.95948
O         92.74497       86.47713       78.14285
H         92.46057       83.87032       74.00303
H         94.07836       85.18203       76.20427
H         91.10917       85.63010       75.47718
H         92.50278       86.63417       74.98429
N         92.62973       82.33156       76.33969
C         92.31059       81.24093       77.25495
C         90.85465       81.31627       77.71156
O         89.98919       81.28363       76.84984
C         92.50721       79.86670       76.57537
C         92.24806       78.77680       77.58957
C         93.19442       78.50457       78.59190
C         91.03143       78.07408       77.58191
C         92.92680       77.54359       79.57062
C         90.76166       77.12507       78.57162
C         91.70873       76.85886       79.56418
H         92.87372       82.09213       75.36957
H         93.02669       81.29455       78.09961
H         93.53080       79.75130       76.15727
H         91.79397       79.78987       75.72454
H         94.13486       79.04151       78.61738
H         90.27940       78.28532       76.83189
H         93.65913       77.33841       80.34055
H         89.81351       76.60365       78.57460
H         91.49650       76.12602       80.33138
N         90.49233       81.33766       79.03550
C         89.11381       81.29201       79.50813
C         88.20968       82.26598       78.79586
O         87.16504       81.86218       78.30169
C         89.23734       81.63428       80.99721
C         90.54864       80.97155       81.34416
C         91.41882       81.35339       80.14918
H         88.73292       80.25247       79.38171
H         89.39204       82.72888       81.13016
H         88.36602       81.32172       81.61166
H         90.97831       81.23567       82.33308
H         90.37677       79.86996       81.31337
H         91.84305       82.37709       80.24042
H         92.22731       80.59957       80.07043
N         88.58448       83.56520       78.66212
C         87.80014       84.55172       77.93482
C         87.63972       84.11050       76.49214
O         86.51462       83.95487       76.03876
C         88.47870       85.93560       77.99699
C         88.57407       86.46676       79.43825
C         89.26575       87.79465       79.47601
O         90.40864       87.93673       80.17517
O         88.79513       88.75137       78.88196
H         89.49071       83.84514       79.06699
H         86.79405       84.64348       78.40380
H         87.88579       86.65583       77.39092
H         89.49806       85.86771       77.56210
H         89.14843       85.76493       80.07722
H         87.55587       86.57260       79.86966
N         88.73235       83.86048       75.71980
C         88.62377       83.40535       74.35145
H         89.63745       83.25920       73.92068
H         88.08192       82.43592       74.31784
H         88.07994       84.15691       73.74131
H         89.67306       83.97596       76.12151
Ca        93.80498       88.21800       79.04500
O         91.65205       90.89033       78.89150
H         91.29711       91.45039       78.15674
H         90.88710       90.32846       79.16560
O         93.80513       86.28356       81.46444
H         93.41833       86.74674       82.24933
H         93.01968       85.98774       80.93912
O         96.40296       88.55564       80.55093
H         97.00725       88.57948       79.76690
H         96.32564       87.59435       80.77539
O         93.49880       89.92498       81.85482
H         93.22565       90.72447       82.37126
H         94.13597       89.45251       82.44758

Ca 1.0



