%chk=apoCaM-CA-Ng.loop1.water4.frame351.chk
%nprocshared=20
%mem=10GB
%nosave
#b3lyp/svp scf=(tight,noincore,xqc) Test 
#IOP(5/87=12) Density=Current Pop=(MK,readradii) iop(6/33=2) iop(6/42=6)

apoCaM-CA-Ng.loop1.water4.frame351 

   0  1 
C         62.32236       84.24633       57.68864
C         62.36699       85.68989       58.09329
O         63.44256       86.26460       58.18180
H         61.73227       84.14511       56.75183
H         63.34363       83.85063       57.50993
H         61.83345       83.64948       58.48664
N         61.20393       86.35072       58.32752
C         61.13855       87.77085       58.64857
C         61.60362       88.09554       60.07061
O         61.50722       89.25423       60.42014
C         59.68024       88.28726       58.48355
C         59.16550       88.17909       57.06754
O         59.01874       86.97921       56.47465
O         58.84855       89.18690       56.45544
H         60.32481       85.82466       58.20584
H         61.75925       88.34177       57.92424
H         59.64312       89.36289       58.76385
H         58.99634       87.73838       59.16674
N         62.04816       87.17764       60.97962
C         62.17791       87.52601       62.40099
C         63.56204       87.32738       62.98757
O         64.13515       86.27501       62.74516
C         61.17138       86.67883       63.19858
C         59.73714       87.03843       62.79627
C         58.70285       86.29041       63.63356
C         57.29174       86.77315       63.27443
N         56.27952       86.05346       64.04303
H         62.16874       86.19210       60.70751
H         61.90667       88.57245       62.55992
H         61.29183       86.89380       64.28166
H         61.36367       85.59483       63.03888
H         59.56843       86.81621       61.72035
H         59.60079       88.12442       62.95375
H         58.88570       86.48437       64.71373
H         58.79620       85.19937       63.44193
H         57.10693       86.61836       62.18814
H         57.21026       87.86291       63.49080
H         56.43349       86.19903       65.06721
H         55.33446       86.41924       63.78585
H         56.32183       85.03294       63.81864
N         64.14028       88.19906       63.88928
C         63.63919       89.50334       64.36821
C         62.21592       89.44616       64.90993
O         61.32645       90.01078       64.29883
C         63.86480       90.62087       63.33024
C         65.33399       90.81586       63.05964
O         66.18024       90.11029       63.58863
O         65.73580       91.73565       62.17944
H         65.03360       87.89370       64.30654
H         64.27428       89.84558       65.21373
H         63.47387       91.58298       63.73045
H         63.33951       90.39596       62.37915
N         61.90495       88.84055       66.08639
C         62.93490       88.36940       66.98773
C         62.40722       87.88297       68.32158
O         61.20883       87.69165       68.46954
H         60.91541       88.82770       66.37704
H         63.55500       89.26279       67.21212
H         63.55561       87.57879       66.51366
N         63.23723       87.72593       69.39455
C         64.66928       88.01857       69.36162
C         64.94368       89.34508       70.04457
O         64.05468       89.89734       70.67988
C         65.47836       86.84941       69.94906
C         65.16835       86.59910       71.40121
O         64.68713       85.53341       71.75046
O         65.43281       87.54233       72.32590
H         62.81157       87.47527       70.30060
H         65.02021       88.13716       68.31861
H         66.56595       87.05118       69.84832
H         65.24515       85.93750       69.35536
N         66.15219       89.95241       69.88783
C         66.46778       91.25472       70.44854
C         65.49937       92.30921       69.96854
O         64.88099       92.96548       70.79541
H         66.87363       89.48858       69.31473
H         67.49282       91.54552       70.13229
H         66.45008       91.19843       71.55865
N         65.30597       92.51699       68.63525
C         64.37143       93.51935       68.12446
C         62.95365       93.20109       68.58816
O         62.65446       92.04115       68.84189
C         64.42858       93.60160       66.57202
C         65.82702       93.97777       66.06194
O         63.52330       94.57155       66.11606
H         65.83992       91.93324       67.97495
H         64.66918       94.50862       68.53935
H         64.14480       92.60181       66.16376
H         63.34840       94.37812       65.15729
H         66.12531       94.97285       66.45447
H         66.58954       93.23290       66.35995
H         65.82077       94.02181       64.95161
N         62.02236       94.19322       68.69970
C         60.63281       93.95505       69.09354
C         59.68242       94.12725       67.91112
O         58.50528       93.84416       68.07336
C         60.22319       94.80277       70.34120
C         60.39166       96.32973       70.11435
C         61.00751       94.31989       71.57601
C         59.84310       97.18649       71.26155
H         62.30651       95.15385       68.45503
H         60.49792       92.88719       69.37565
H         59.14774       94.59721       70.54238
H         59.84148       96.62125       69.19456
H         61.46378       96.58524       69.97895
H         60.84551       93.23095       71.72618
H         62.09520       94.50636       71.45598
H         60.65462       94.81887       72.50101
H         60.38767       97.00326       72.20994
H         59.96985       98.26169       71.01335
H         58.76181       96.98472       71.41367
N         60.13297       94.50479       66.67682
C         59.31523       94.48369       65.46609
C         59.93364       93.51311       64.46088
O         60.96862       92.93303       64.75569
C         59.15401       95.91463       64.89483
C         60.47834       96.55548       64.46577
O         58.54703       96.74100       65.85447
H         61.11570       94.76507       66.55738
H         58.29564       94.10438       65.69401
H         58.50812       95.87925       63.98791
H         57.59982       96.45104       65.92759
H         61.16345       96.68071       65.32935
H         60.97825       95.94115       63.68784
H         60.27995       97.56155       64.03926
N         59.33521       93.27189       63.25573
C         59.85944       92.30677       62.28572
C         60.27507       93.01297       60.99275
O         60.20114       94.23193       60.93626
C         58.82838       91.15399       62.09437
C         57.61362       91.52158       61.24660
O         58.35247       90.72353       63.34610
H         58.46197       93.76620       63.02548
H         60.77879       91.82927       62.67907
H         59.31917       90.30541       61.56437
H         59.02136       90.11134       63.73416
H         57.03820       92.34724       61.71037
H         57.92408       91.80738       60.22150
H         56.95256       90.63047       61.16374
N         60.70207       92.30081       59.90418
C         61.06063       92.90590       58.62200
C         62.42185       92.43424       58.06677
O         62.84303       92.97241       57.05236
C         59.90120       92.58996       57.64961
C         59.91719       93.30173       56.28782
C         59.91943       94.83014       56.43312
C         59.72068       95.52033       55.08120
N         59.76807       96.97417       55.23308
H         60.65633       91.28547       59.95109
H         61.12214       94.00375       58.75840
H         58.95265       92.88854       58.15004
H         59.85612       91.49284       57.48220
H         58.99075       92.99142       55.75592
H         60.78006       92.97408       55.67219
H         60.88703       95.16045       56.86611
H         59.09432       95.14099       57.11137
H         58.73162       95.22553       54.66389
H         60.51444       95.19851       54.37170
H         60.71260       97.26554       55.57566
H         59.59087       97.42205       54.30551
H         59.03592       97.29244       55.90923
N         63.16901       91.45235       58.65686
C         64.47200       90.99487       58.15562
C         64.38912       90.45024       56.73944
O         63.64738       89.50857       56.49683
C         65.04373       89.90055       59.09181
C         66.41533       89.29493       58.70104
C         67.54399       90.28667       58.51484
O         67.57011       91.01271       57.53833
O         68.53527       90.38763       59.41843
H         62.81648       91.01818       59.51546
H         65.17222       91.85631       58.18333
H         64.31811       89.05665       59.14929
H         65.12865       90.32862       60.10977
H         66.32788       88.69749       57.76727
H         66.68648       88.58566       59.51387
N         65.19231       90.97136       55.76759
C         65.28018       90.44683       54.42095
H         66.31830       90.09023       54.24156
H         64.58840       89.59687       54.24932
H         65.05302       91.25310       53.69424
H         65.81308       91.76106       55.99539
Ca        67.70443       91.12154       61.33750
O         69.97116       88.48418       61.53248
H         70.82011       88.00483       61.70553
H         69.63826       88.09946       60.68293
O         68.56049       93.95930       61.37716
H         68.04228       94.47456       62.04505
H         69.50647       94.17282       61.57571
O         68.60154       92.69842       64.57933
H         68.64300       93.68772       64.59430
H         68.97946       92.42184       65.45181
O         70.84536       91.65990       62.59686
H         71.52948       91.08495       63.02306
H         70.94781       92.53785       63.04315

Ca 1.0



