%chk=apoCaM-CA-Ng.loop2.water2.frame840.chk
%nprocshared=20
%mem=10GB
%nosave
#b3lyp/svp scf=(tight,noincore,xqc) Test 
#IOP(5/87=12) Density=Current Pop=(MK,readradii) iop(6/33=2) iop(6/42=6)

apoCaM-CA-Ng.loop2.water2.frame840 

   -2  1 
C         50.93170       78.14158       95.41223
C         49.67557       77.32559       95.33975
O         49.20593       76.85516       96.36595
H         51.72436       77.66550       94.79954
H         50.73196       79.16226       95.02018
H         51.28615       78.23074       96.46119
N         49.04971       77.15937       94.14241
C         47.78221       76.45737       93.98183
C         46.64961       77.45700       93.74366
O         45.51355       77.03198       93.58730
C         47.92896       75.42843       92.84102
C         46.70451       74.57256       92.66554
O         46.26979       73.79778       93.67797
O         46.10407       74.56927       91.60271
H         49.45769       77.61543       93.31024
H         47.52446       75.90807       94.91443
H         48.78071       74.75195       93.07082
H         48.15729       75.96200       91.89160
N         46.87520       78.80526       93.77666
C         45.83542       79.81595       93.66620
C         46.18739       80.77714       92.53749
O         47.29871       81.28940       92.56577
C         45.76558       80.58556       94.98798
H         47.82667       79.16211       93.94152
H         44.84706       79.34685       93.54249
H         46.73590       81.07628       95.21771
H         44.97210       81.36095       94.93828
H         45.52058       79.88585       95.81606
N         45.34192       81.14467       91.52824
C         43.94327       80.75601       91.37719
C         43.58959       80.54722       89.91634
O         44.04706       81.29735       89.06838
C         43.01319       81.80164       92.02320
C         43.13359       83.18030       91.43913
O         44.29297       83.85944       91.52851
O         42.16473       83.70705       90.91741
H         45.69830       81.86376       90.87872
H         43.72092       79.81152       91.90125
H         43.23657       81.86575       93.10933
H         41.96302       81.44775       91.91598
N         42.72390       79.55982       89.56525
C         42.29280       79.29390       88.20516
C         40.78726       79.37914       88.13433
O         40.16287       78.32935       88.07927
H         42.33654       78.95400       90.30551
H         42.60310       78.25180       87.97243
H         42.76906       79.94781       87.44786
N         40.08828       80.55246       88.16013
C         40.65684       81.89819       88.07369
C         41.26896       82.07962       86.68795
O         40.58403       81.80336       85.71199
C         39.52093       82.92738       88.31103
C         39.95092       84.37257       88.37260
N         39.02503       85.33472       88.59104
O         41.12258       84.68437       88.24067
H         39.05852       80.47172       88.19176
H         41.40413       82.04625       88.88126
H         39.04550       82.69669       89.28996
H         38.75105       82.82012       87.51633
H         38.03204       85.08982       88.71475
H         39.29554       86.32676       88.63827
N         42.54871       82.52590       86.52084
C         43.21769       82.56905       85.22422
C         43.51373       83.96702       84.71838
O         44.11251       84.07442       83.65907
H         43.08631       82.82377       87.34682
H         42.60517       82.07435       84.44040
H         44.16696       81.99828       85.30953
N         43.08400       85.07871       85.37643
C         43.24926       86.44113       84.87234
C         44.01916       87.28409       85.87727
O         44.46189       86.76607       86.88790
C         41.84232       87.03394       84.57535
C         41.17460       86.30180       83.40856
O         41.00907       86.94915       85.70227
H         42.56633       84.96907       86.25610
H         43.83231       86.46624       83.92604
H         41.91342       88.09327       84.24460
H         41.32191       87.63919       86.34065
H         40.18338       86.75591       83.19591
H         41.80089       86.39500       82.49458
H         41.02995       85.22584       83.63896
N         44.19239       88.61906       85.65976
C         44.84205       89.51425       86.60770
C         43.75189       90.36900       87.21681
O         43.07326       91.07499       86.48534
C         45.92778       90.35506       85.87619
C         46.54520       91.47981       86.75020
C         47.01880       89.43728       85.29581
C         47.26727       91.00765       88.01342
H         43.79096       89.04373       84.81244
H         45.32848       88.93939       87.42444
H         45.44208       90.87071       85.01692
H         45.74402       92.18754       87.05406
H         47.26684       92.05476       86.12865
H         47.76928       90.03593       84.73742
H         47.53330       88.86811       86.09745
H         46.57688       88.70556       84.58684
H         48.11989       90.34503       87.76292
H         47.66856       91.89288       88.55112
H         46.57097       90.47877       88.69439
N         43.50967       90.31662       88.56111
C         42.40651       91.03196       89.19590
C         42.89601       92.12436       90.12179
O         42.10485       93.01702       90.40784
C         41.50770       90.04670       89.96108
C         40.99097       88.96208       89.06334
O         40.26714       89.23430       88.11898
O         41.33353       87.68152       89.29739
H         44.10674       89.72098       89.15101
H         41.79455       91.53821       88.41718
H         40.64434       90.57927       90.41565
H         42.09922       89.58224       90.78025
N         44.15942       92.14683       90.63824
C         44.65480       93.27906       91.40759
C         45.97816       92.95295       92.09975
O         46.95022       92.67717       91.40431
C         44.85173       94.47507       90.44591
C         45.53177       95.64468       91.10960
C         46.80459       96.04803       90.66989
C         44.92264       96.32566       92.17486
C         47.46094       97.11077       91.29161
C         45.58360       97.39071       92.79475
C         46.85203       97.78153       92.35448
H         44.79524       91.35205       90.47450
H         43.89982       93.54653       92.17314
H         43.88251       94.80509       90.01674
H         45.47968       94.11979       89.59767
H         47.29476       95.53314       89.85214
H         43.94261       96.02897       92.52675
H         48.44345       97.40970       90.95013
H         45.11420       97.91129       93.61866
H         47.36451       98.60314       92.83647
N         46.11934       93.00821       93.46393
C         47.38811       92.86338       94.16474
C         47.87507       91.42364       94.25411
O         48.88860       91.20028       94.90029
C         47.08438       93.45646       95.54687
C         45.65160       93.02950       95.76340
C         45.04206       93.30846       94.39389
H         48.18877       93.48164       93.70082
H         47.79995       93.18765       96.35283
H         47.07262       94.56767       95.45376
H         45.65647       91.92882       95.93518
H         45.12193       93.51915       96.60816
H         44.15413       92.65292       94.26154
H         44.76254       94.37744       94.27989
N         47.22762       90.39902       93.62826
C         47.66924       89.00808       93.70657
C         49.06687       88.76706       93.14345
O         49.57004       87.66446       93.31548
C         46.64374       88.10037       92.99353
C         46.59158       88.33683       91.46798
C         45.41685       87.62600       90.87610
O         44.28863       87.94437       91.21230
O         45.58107       86.64682       89.97177
H         46.36333       90.60249       93.11248
H         47.68199       88.73392       94.78521
H         45.64924       88.31233       93.44584
H         46.87560       87.02855       93.18154
H         47.53652       87.97878       91.00430
H         46.47753       89.41314       91.22383
N         49.75329       89.72104       92.45111
C         51.08403       89.48301       91.93708
H         51.77934       89.26425       92.77558
H         51.07173       88.62633       91.23048
H         51.44918       90.38386       91.39960
H         49.33155       90.64084       92.26360
Ca        43.69372       85.63162       89.26462
O         42.42219       86.26787       92.63149
H         43.25733       86.00940       93.09696
H         42.29730       87.22347       92.85853
O         45.78845       83.96011       87.76552
H         46.35592       84.59727       88.26716
H         45.26132       83.50176       88.46599

Ca 1.0



