%chk=apoCaM-CA-Ng.loop1.water3.frame20.chk
%nprocshared=20
%mem=10GB
%nosave
#b3lyp/svp scf=(tight,noincore,xqc) Test 
#IOP(5/87=12) Density=Current Pop=(MK,readradii) iop(6/33=2) iop(6/42=6)

apoCaM-CA-Ng.loop1.water3.frame20 

   0  1 
C         54.53765       54.99978       48.03517
C         53.79041       56.12559       47.37821
O         54.26034       56.63932       46.37373
H         55.53423       55.35317       48.37065
H         53.98741       54.60459       48.91586
H         54.66883       54.17020       47.30873
N         52.60657       56.55584       47.89446
C         51.79116       57.60882       47.29807
C         51.59637       58.78406       48.24655
O         50.76595       59.62756       47.93977
C         50.41392       57.03268       46.87565
C         49.54855       56.57191       48.02347
O         49.91709       55.52647       48.78678
O         48.48451       57.12853       48.24530
H         52.26074       56.10432       48.75327
H         52.26020       58.00015       46.36896
H         50.55670       56.18752       46.16947
H         49.86524       57.82982       46.32500
N         52.29290       58.90423       49.41776
C         51.95687       59.88901       50.44172
C         53.06846       60.88884       50.69839
O         54.18083       60.45249       50.96138
C         51.64717       59.16145       51.75877
C         50.38735       58.30283       51.63337
C         50.08358       57.58989       52.95356
C         48.73070       56.86250       52.93482
N         48.64975       55.84980       51.88223
H         53.04573       58.23477       49.63636
H         51.04873       60.41849       50.15631
H         51.46793       59.91708       52.55608
H         52.51797       58.53662       52.06090
H         50.52907       57.55163       50.82812
H         49.53534       58.96624       51.36716
H         50.04338       58.34025       53.77360
H         50.90201       56.87115       53.17885
H         47.91229       57.60385       52.79614
H         48.58955       56.37529       53.92414
H         47.75305       55.32343       51.98689
H         48.64151       56.30678       50.94378
H         49.45103       55.18190       51.95357
N         52.86905       62.24803       50.74577
C         51.62436       62.98588       50.48030
C         50.45689       62.52648       51.36230
O         49.46897       62.03903       50.82805
C         51.28391       62.96826       48.97588
C         52.41409       63.52441       48.16835
O         52.83729       64.77523       48.40233
O         52.95504       62.85154       47.30591
H         53.68326       62.82613       51.00978
H         51.79440       64.06124       50.71010
H         50.39226       63.60814       48.80268
H         51.05075       61.95423       48.61894
N         50.44664       62.65709       52.71889
C         51.45910       63.35895       53.48565
C         50.83041       64.54084       54.20170
O         49.61961       64.55937       54.36968
H         49.63165       62.28777       53.23461
H         52.27439       63.71476       52.83907
H         51.91307       62.67526       54.23538
N         51.57112       65.57506       54.69176
C         53.00637       65.71908       54.48489
C         53.36258       66.20120       53.06980
O         54.54586       66.30027       52.78275
C         53.61056       66.65317       55.56025
C         53.14425       68.08815       55.52447
O         53.60980       68.94910       56.44881
O         52.35850       68.48617       54.67885
H         51.07240       66.29637       55.23648
H         53.48423       64.72972       54.66250
H         54.71723       66.64818       55.46268
H         53.35867       66.23239       56.55876
N         52.41046       66.52781       52.13813
C         52.77719       66.99634       50.80121
C         51.58008       67.27138       49.89487
O         50.44402       67.13408       50.32191
H         51.41736       66.44058       52.38400
H         53.41581       66.22857       50.32163
H         53.36761       67.93373       50.89200
N         51.78668       67.66984       48.60007
C         50.70489       67.99052       47.66325
C         50.70788       67.01593       46.49276
O         51.72651       66.85514       45.83647
C         50.78234       69.46679       47.18941
C         52.01903       69.83465       46.35357
O         50.66514       70.33417       48.28976
H         52.75795       67.75250       48.26568
H         49.72185       67.90257       48.17479
H         49.89893       69.64802       46.53737
H         51.49203       70.24948       48.83264
H         51.95805       70.90381       46.06006
H         52.95489       69.67953       46.92781
H         52.05808       69.24339       45.41704
N         49.58496       66.30011       46.19980
C         49.54326       65.27939       45.15681
C         49.65584       65.89562       43.76956
O         48.77108       66.64135       43.37114
C         48.23416       64.42580       45.24671
C         48.14006       63.72724       46.63127
C         48.19265       63.37951       44.10894
C         46.86229       62.91254       46.83222
H         48.74592       66.46017       46.77481
H         50.38965       64.57683       45.32750
H         47.35688       65.10099       45.12318
H         48.15083       64.48590       47.43887
H         49.01770       63.06174       46.77692
H         47.24529       62.80640       44.11390
H         48.23181       63.87260       43.11799
H         49.04814       62.67601       44.19124
H         45.96786       63.55506       46.68829
H         46.81777       62.04942       46.13885
H         46.84885       62.50711       47.86551
N         50.68219       65.52992       42.94938
C         50.73665       65.84524       41.52309
C         50.73133       64.56521       40.67207
O         50.70614       64.68864       39.45619
C         51.95991       66.73663       41.20182
C         53.29801       66.06333       41.52916
O         51.84962       67.93809       41.92053
H         51.42933       64.94026       43.34348
H         49.83143       66.42059       41.22483
H         51.93102       66.96017       40.10855
H         52.45002       68.59505       41.47953
H         54.13504       66.73294       41.24048
H         53.38135       65.86262       42.61592
H         53.40535       65.11135       40.96871
N         50.73938       63.31323       41.23537
C         50.72288       62.04300       40.51066
C         51.98211       61.82286       39.68118
O         52.31732       62.62918       38.82556
C         49.44041       61.83174       39.67393
C         48.19371       61.90477       40.56636
O         49.50152       60.55498       39.08695
H         50.74204       63.21795       42.25802
H         50.69584       61.23500       41.27734
H         49.37894       62.60222       38.87423
H         48.78017       60.50873       38.40694
H         47.28178       61.69876       39.96812
H         48.25441       61.14993       41.38169
H         48.09398       62.91368       41.01108
N         52.68661       60.66988       39.85471
C         53.86945       60.30388       39.08797
C         55.04874       61.16758       39.48655
O         55.65833       61.78101       38.62160
C         54.16926       58.80160       39.32357
C         55.40648       58.24208       38.59497
C         55.42400       58.41977       37.06646
C         54.23226       57.76555       36.35008
N         54.36493       57.90470       34.89921
H         52.32538       59.98354       40.53516
H         53.65145       60.42048       38.00312
H         53.27613       58.21888       39.00880
H         54.31018       58.61427       40.41056
H         55.47363       57.15646       38.82868
H         56.31671       58.72790       39.00695
H         56.36153       57.95431       36.69103
H         55.45972       59.50013       36.81374
H         53.28471       58.24894       36.67230
H         54.18376       56.68501       36.60998
H         53.53438       57.47340       34.43315
H         54.41334       58.91600       34.63596
H         55.22852       57.41482       34.56949
N         55.44477       61.22722       40.78914
C         56.65696       61.90552       41.22365
C         57.81502       60.93730       41.16872
O         57.72690       59.86616       41.75378
C         56.51569       62.44907       42.65720
C         55.50689       63.59986       42.72462
C         55.52821       64.26727       44.06648
O         54.40249       64.39949       44.78765
O         56.56519       64.75609       44.48613
H         54.91838       60.68139       41.48841
H         56.87987       62.77690       40.56662
H         57.50993       62.84975       42.95896
H         56.23886       61.63887       43.36885
H         54.48472       63.23589       42.48479
H         55.79427       64.37243       41.97932
N         58.95435       61.27374       40.50112
C         60.11637       60.41356       40.41955
H         60.97636       60.91302       40.91349
H         59.95190       59.43151       40.91009
H         60.36669       60.23672       39.35323
H         59.02019       62.19758       40.04732
Ca        54.56831       65.73823       46.59367
O         56.30046       64.22087       48.49912
H         55.89942       64.19631       49.40410
H         57.23875       64.49981       48.64793
O         54.43743       67.89408       44.67198
H         54.83638       68.71210       45.06149
H         54.26022       68.12511       43.72662
O         57.33041       66.99169       46.39184
H         57.20200       67.44475       45.52081
H         58.21960       66.56248       46.31984

Ca 1.0



