%chk=apoCaM-CA-Ng.loop3.water8.frame1162.chk
%nprocshared=20
%mem=10GB
%nosave
#b3lyp/svp scf=(tight,noincore,xqc) Test 
#IOP(5/87=12) Density=Current Pop=(MK,readradii) iop(6/33=2) iop(6/42=6)

apoCaM-CA-Ng.loop3.water8.frame1162 

   0  1 
C         81.15347       38.60504       71.33617
C         81.86924       37.34483       70.94796
O         82.79003       37.42341       70.14819
H         80.34396       38.40407       72.06821
H         81.87704       39.31308       71.79262
H         80.70898       39.07725       70.43667
N         81.51645       36.14513       71.49565
C         82.20116       34.89329       71.18445
C         81.28038       33.81974       70.61038
O         81.80451       32.75639       70.31340
C         82.98374       34.39269       72.41914
C         82.16319       34.03101       73.63054
O         82.79441       33.60811       74.74194
O         80.94553       34.10928       73.62864
H         80.75511       36.13056       72.18964
H         82.97232       35.07071       70.40218
H         83.70187       35.18879       72.71326
H         83.57807       33.49876       72.12891
N         79.93251       34.00975       70.40886
C         79.02646       33.06980       69.72780
C         79.74378       32.11640       68.77706
O         79.64054       30.90379       68.90386
C         78.09565       32.34887       70.72600
C         78.85935       31.55638       71.79996
C         77.92031       30.61321       72.55830
C         78.68082       29.85027       73.65015
N         77.82448       28.84714       74.28105
H         79.50180       34.89192       70.71848
H         78.37391       33.66623       69.05169
H         77.44667       31.66412       70.13486
H         77.43078       33.08224       71.23284
H         79.34975       32.26990       72.49526
H         79.64775       30.92862       71.33780
H         77.50067       29.88280       71.83062
H         77.08180       31.18115       73.01680
H         79.04162       30.57252       74.41604
H         79.56401       29.33775       73.20730
H         78.35985       28.37153       75.04279
H         76.97372       29.29743       74.68906
H         77.53998       28.13004       73.57396
N         80.50797       32.64059       67.78392
C         81.31489       31.84568       66.86853
C         82.78247       32.20462       67.02927
O         83.11862       33.09676       67.79648
C         80.81260       32.04143       65.42066
C         80.66114       33.49058       65.04484
O         79.56070       33.92111       64.73984
O         81.70638       34.33516       65.09129
H         80.54688       33.66719       67.69480
H         81.23502       30.76207       67.10575
H         79.81253       31.56096       65.33933
H         81.48380       31.52960       64.70004
N         83.72637       31.51741       66.33366
C         85.14238       31.80406       66.43403
C         85.68623       31.45620       67.80845
O         85.55516       30.29859       68.17963
H         83.43322       30.76582       65.69202
H         85.31466       32.84237       66.11004
H         85.68480       31.15873       65.70998
N         86.37071       32.32147       68.61758
C         86.64013       33.73409       68.35200
C         86.41005       34.56697       69.61267
O         86.29731       33.99825       70.68998
C         88.10306       33.86027       67.87128
C         88.27048       33.24025       66.50667
N         89.06901       32.16529       66.32091
O         87.67611       33.72166       65.55305
H         86.79388       31.91763       69.46940
H         85.94726       34.13208       67.59317
H         88.76854       33.37356       68.61753
H         88.43913       34.90673       67.78767
H         89.57836       31.74156       67.10907
H         89.17086       31.75037       65.38263
N         86.30633       35.92817       69.58853
C         86.29243       36.72518       68.37068
C         86.14933       38.18349       68.69845
O         87.02039       38.72230       69.36985
H         86.17300       36.41109       70.49284
H         85.44460       36.39355       67.73446
H         87.22803       36.61688       67.79920
N         85.05860       38.88538       68.28284
C         84.85812       40.28544       68.64356
C         83.45017       40.74982       68.28504
O         82.77590       40.08532       67.50765
C         85.89907       41.17489       67.91080
C         86.22932       42.44675       68.64605
C         85.85025       43.70526       68.15410
C         86.98762       42.36956       69.82704
C         86.22161       44.86815       68.84113
C         87.37086       43.52971       70.50079
C         86.98869       44.78507       70.01023
O         87.35976       45.91372       70.64787
H         84.33424       38.37287       67.76024
H         84.97225       40.33107       69.75018
H         85.54338       41.36389       66.87286
H         86.87201       40.65310       67.79358
H         85.26979       43.78748       67.24419
H         87.30664       41.40828       70.21112
H         85.92350       45.83595       68.45883
H         87.97235       43.45020       71.39803
H         87.90665       45.89580       71.44685
N         82.92734       41.88621       68.82087
C         81.58298       42.36333       68.47204
C         81.53742       42.74599       66.98708
O         82.58699       42.78655       66.36076
C         81.13753       43.48180       69.47538
C         81.99976       44.76827       69.37152
C         79.63391       43.80967       69.38068
C         81.75345       45.74417       70.52595
H         83.49033       42.38486       69.52518
H         80.89132       41.50492       68.62754
H         81.28888       43.03470       70.48421
H         81.80949       45.27704       68.40190
H         83.07697       44.51426       69.41043
H         79.39791       44.39262       68.46913
H         79.03016       42.87718       69.40636
H         79.30716       44.42136       70.24486
H         81.96539       45.24530       71.49662
H         82.43121       46.61716       70.42543
H         80.71270       46.12453       70.53031
N         80.35962       43.01354       66.34797
C         80.29247       43.34739       64.92654
C         79.25796       42.50300       64.20128
O         78.50445       41.77736       64.83158
C         79.93627       44.83570       64.77282
O         78.68072       45.09738       65.33871
H         79.47806       42.98250       66.87273
H         81.27763       43.18314       64.43955
H         79.92838       45.10723       63.69267
H         80.70917       45.44834       65.28606
H         78.43143       46.01473       65.05421
N         79.14496       42.61924       62.84592
C         78.06290       42.06856       62.04152
C         76.76203       42.74904       62.42365
O         75.77184       42.08095       62.69247
C         77.99973       40.53413       62.10420
H         79.83190       43.20404       62.34764
H         78.26140       42.34647       60.98237
H         78.97160       40.09708       61.79407
H         77.75245       40.17992       63.12357
H         77.21222       40.15844       61.41585
N         76.71727       44.11608       62.48050
C         75.52604       44.89984       62.78870
C         74.93598       44.61702       64.16714
O         73.85833       45.12784       64.44119
C         74.48316       44.71223       61.67920
H         77.57994       44.64398       62.27637
H         75.79732       45.97933       62.77179
H         74.11613       43.66799       61.62877
H         73.61617       45.38561       61.85117
H         74.93347       44.98576       60.70055
N         75.57758       43.85008       65.10022
C         74.99476       43.54084       66.40113
C         74.69984       44.82364       67.15698
O         73.54936       45.05723       67.50055
C         75.94095       42.62214       67.21582
C         75.28646       42.05551       68.48831
C         74.15497       41.11930       68.15759
O         72.90769       41.38194       68.59076
O         74.36427       40.11258       67.49826
H         76.50692       43.46761       64.88774
H         74.04826       42.98455       66.21898
H         76.85899       43.18460       67.49189
H         76.25989       41.76094       66.58862
H         74.92471       42.88501       69.13308
H         76.04577       41.48169       69.06168
N         75.69663       45.71817       67.41137
C         75.48472       46.98850       68.07437
H         74.42421       47.14598       68.36238
H         76.11183       47.03741       68.98823
H         75.78401       47.80996       67.38921
H         76.65540       45.50482       67.10030
Ca        81.24580       36.53013       64.81084
O         78.97289       35.81539       67.15232
H         78.24643       35.24882       66.78972
H         78.50301       36.54211       67.63249
O         78.31409       37.95601       64.96955
H         77.59041       38.61943       65.09603
H         78.81236       38.27683       64.17689
O         80.21528       38.70243       67.11260
H         80.01045       39.62192       66.80845
H         80.49391       38.80714       68.05622
O         82.63957       36.06290       67.49010
H         82.03753       35.55908       68.09171
H         82.30810       36.99360       67.53878
O         81.34528       39.24022       63.39799
H         81.96201       38.80979       62.75374
H         81.37481       40.20253       63.16812
O         79.23543       36.15780       62.48374
H         78.90018       35.23068       62.39520
H         79.51211       36.41195       61.56803
O         82.80967       35.96326       62.42354
H         83.39925       36.25269       61.68343
H         82.14612       35.36390       61.99818
O         83.86548       37.84736       65.04481
H         84.43908       37.04874       65.16202
H         84.47536       38.61654       65.17038

Ca 1.0



