%chk=apoCaM-CA-Ng.loop3.water5.frame323.chk
%nprocshared=20
%mem=10GB
%nosave
#b3lyp/svp scf=(tight,noincore,xqc) Test 
#IOP(5/87=12) Density=Current Pop=(MK,readradii) iop(6/33=2) iop(6/42=6)

apoCaM-CA-Ng.loop3.water5.frame323 

   0  1 
C         56.68118       56.13537       43.78840
C         57.62070       56.07140       42.62155
O         57.32330       55.39268       41.65048
H         55.77587       55.51862       43.60316
H         57.19451       55.74936       44.69498
H         56.37281       57.18667       43.96552
N         58.79645       56.75860       42.66366
C         59.81576       56.72882       41.62039
C         60.37242       55.31733       41.49251
O         60.35951       54.73064       40.41862
C         59.27659       57.33649       40.30259
C         60.33519       57.54445       39.24820
O         61.62379       57.21726       39.47144
O         60.02239       58.03550       38.17574
H         58.99928       57.32275       43.50380
H         60.65286       57.38021       41.95982
H         58.84168       58.33381       40.53186
H         58.47439       56.69609       39.88084
N         60.88521       54.71826       42.60392
C         61.49658       53.38899       42.62429
C         60.56367       52.25286       42.21589
O         61.04934       51.13843       42.07359
C         62.06712       53.10138       44.03483
C         60.96353       52.99872       45.11188
C         61.55832       52.84541       46.51340
C         60.44452       52.73169       47.56427
N         61.00345       52.61729       48.91009
H         60.88112       55.27374       43.47227
H         62.34156       53.40924       41.90071
H         62.76920       53.92307       44.29692
H         62.64699       52.15222       44.02178
H         60.31034       52.12650       44.89087
H         60.33090       53.91057       45.11087
H         62.18517       53.73610       46.73981
H         62.19688       51.93655       46.55136
H         59.82175       51.83535       47.34672
H         59.79019       53.63140       47.51762
H         61.55217       53.47670       49.14356
H         60.22170       52.51833       49.59739
H         61.62021       51.77520       48.97363
N         59.22322       52.43320       42.04386
C         58.32267       51.34831       41.66651
C         58.70008       50.73518       40.31450
O         59.41870       51.34007       39.53057
C         56.85062       51.85046       41.73960
C         55.89488       51.03443       40.93391
O         54.91133       50.27627       41.44781
O         55.98045       51.11916       39.72641
H         58.82055       53.36158       42.22088
H         58.43278       50.53114       42.41335
H         56.77403       52.86892       41.29814
H         56.54407       51.92524       42.80400
N         58.26192       49.47297       40.02436
C         58.56883       48.74952       38.80464
C         57.94545       49.38825       37.59114
O         58.68503       49.73558       36.68096
H         57.70473       48.97221       40.73288
H         58.16852       47.71679       38.88315
H         59.67290       48.67117       38.68917
N         56.59063       49.57616       37.50208
C         55.95507       50.17005       36.32985
C         55.56760       51.62949       36.56892
O         54.48614       52.04896       36.18415
C         54.81040       49.25580       35.80769
C         53.54481       49.12005       36.69798
N         52.47183       48.23134       36.23838
O         53.12128       50.13906       37.55674
H         55.99643       49.28484       38.28729
H         56.71144       50.21728       35.51798
H         55.21014       48.21923       35.75277
H         54.55146       49.56075       34.77167
H         52.49004       48.09187       35.20469
H         51.53160       48.60184       36.50539
N         56.45718       52.47951       37.16789
C         56.26327       53.91088       37.36584
C         55.13788       54.34534       38.30244
O         55.03459       55.53445       38.53716
H         57.36776       52.09826       37.46522
H         56.11693       54.39938       36.37835
H         57.20284       54.31771       37.80396
N         54.25012       53.46566       38.85466
C         53.14034       53.88456       39.71046
C         52.03158       52.85478       39.60408
O         52.25594       51.68911       39.85713
C         53.60010       54.06838       41.16920
C         52.42755       54.32754       42.09566
C         51.58084       55.43550       41.91050
C         52.15830       53.43255       43.14546
C         50.48182       55.63418       42.75438
C         51.06242       53.63453       43.98814
C         50.21789       54.73552       43.79350
O         49.15216       54.93739       44.59476
H         54.31162       52.47718       38.60993
H         52.73326       54.84985       39.34219
H         54.32289       54.91020       41.22994
H         54.12634       53.14683       41.49271
H         51.76131       56.13914       41.10835
H         52.79360       52.57196       43.30917
H         49.83056       56.48494       42.59742
H         50.86880       52.93136       44.78851
H         48.93348       54.33609       45.32136
N         50.78856       53.25224       39.21790
C         49.73430       52.30392       38.89147
C         50.06607       51.71304       37.53701
O         50.06162       50.49694       37.39042
C         48.34538       53.01187       38.90935
C         48.04457       53.67888       40.28126
C         47.21731       52.03348       38.54117
C         48.07830       52.73448       41.48962
H         50.61062       54.25267       39.06319
H         49.68714       51.49299       39.64801
H         48.33457       53.82205       38.14642
H         47.04004       54.15289       40.23158
H         48.77598       54.49206       40.46883
H         47.35267       51.68721       37.50546
H         47.20201       51.15077       39.21429
H         46.22989       52.53936       38.58247
H         47.82014       53.30481       42.40563
H         47.34606       51.90929       41.38042
H         49.09359       52.31230       41.63883
N         50.41672       52.52517       36.50536
C         50.75033       52.04404       35.17338
C         49.52323       51.44132       34.52463
O         49.63535       50.39824       33.90068
C         51.29163       53.18916       34.29106
O         52.54332       53.64428       34.74084
H         50.45103       53.54368       36.68112
H         51.56399       51.28332       35.22150
H         50.57403       54.03557       34.22041
H         51.44839       52.79704       33.26263
H         52.44754       53.94117       35.68125
N         48.30683       52.05054       34.65988
C         47.08187       51.58966       34.01608
C         46.73824       50.13429       34.33228
O         46.04296       49.51643       33.53249
C         47.18753       51.83907       32.50491
H         48.23751       52.89905       35.24016
H         46.23879       52.22397       34.37062
H         46.22509       51.60077       32.00451
H         47.41035       52.91232       32.31888
H         47.99205       51.22537       32.04988
N         47.15272       49.52128       35.47964
C         46.90665       48.11555       35.77488
C         45.96387       47.95040       36.95151
O         46.26608       48.41289       38.04488
C         48.23468       47.41192       36.06010
H         47.69123       50.05819       36.17063
H         46.45623       47.61043       34.89270
H         48.90981       47.50496       35.18350
H         48.73583       47.86249       36.94457
H         48.05827       46.33336       36.26097
N         44.79408       47.26863       36.78171
C         43.81468       46.98273       37.82386
C         43.26087       48.26386       38.42115
O         43.25739       48.42393       39.63467
C         44.38687       46.02615       38.89955
C         44.86265       44.69366       38.30319
C         45.37628       43.78218       39.38180
O         46.53307       43.39315       39.35917
O         44.55944       43.38159       40.37545
H         44.56947       46.91087       35.83972
H         42.95677       46.45961       37.34391
H         43.58601       45.81153       39.64234
H         45.23301       46.51106       39.43210
H         45.67099       44.88317       37.56347
H         44.01945       44.18884       37.78440
N         42.76026       49.23083       37.60604
C         42.18601       50.45044       38.13023
H         41.28446       50.20941       38.73321
H         42.92619       50.98099       38.76646
H         41.88798       51.11830       37.29493
H         42.79398       49.10253       36.58357
Ca        53.77783       49.44012       39.66629
O         55.44571       46.74731       39.51221
H         55.93879       47.39450       40.07586
H         55.84978       46.83660       38.61277
O         50.49614       48.72112       40.07906
H         50.55102       48.74313       39.09264
H         49.56832       48.43469       40.27002
O         52.43182       46.64845       38.83098
H         53.02531       46.28575       38.12658
H         51.51699       46.51383       38.47735
O         51.59663       49.64304       42.56591
H         51.91971       50.28229       43.24792
H         50.61133       49.65296       42.66461
O         53.36122       46.99908       41.87671
H         52.84569       46.15842       41.78713
H         53.72325       46.97206       42.79782

Ca 1.0



