%chk=apoCaM-CA-Ng.loop3.water3.frame607.chk
%nprocshared=20
%mem=10GB
%nosave
#b3lyp/svp scf=(tight,noincore,xqc) Test 
#IOP(5/87=12) Density=Current Pop=(MK,readradii) iop(6/33=2) iop(6/42=6)

apoCaM-CA-Ng.loop3.water3.frame607 

   0  1 
C         78.57408       44.05947      -10.28587
C         79.40590       45.14142       -9.66055
O         80.25296       45.70102      -10.34228
H         78.01022       44.47608      -11.14694
H         79.23395       43.24223      -10.64470
H         77.84707       43.63513       -9.56172
N         79.21027       45.50410       -8.36162
C         79.97566       46.56474       -7.71858
C         81.43858       46.16794       -7.62481
O         81.74225       45.13555       -7.04209
C         79.41258       46.85565       -6.31055
C         79.96525       48.09821       -5.65989
O         79.51601       48.45782       -4.44319
O         80.79463       48.79575       -6.22063
H         78.47042       45.02648       -7.82326
H         79.84534       47.49291       -8.31939
H         79.56727       45.97235       -5.65751
H         78.33250       47.02613       -6.38695
N         82.40066       46.96046       -8.16968
C         83.82778       46.65478       -8.10368
C         84.32262       46.47976       -6.67238
O         85.11482       45.57930       -6.43357
C         84.66754       47.71776       -8.85431
C         84.58730       49.14273       -8.26512
C         85.37737       50.17853       -9.08281
C         86.89667       49.94105       -9.06216
N         87.59732       50.98963       -9.80317
H         82.09664       47.81786       -8.65382
H         84.00404       45.69637       -8.64284
H         84.32163       47.74848       -9.91111
H         85.72278       47.37400       -8.85062
H         84.96139       49.15278       -7.22105
H         83.52914       49.47571       -8.25667
H         85.18024       51.17937       -8.64082
H         85.00673       50.18633      -10.13127
H         87.14366       48.95982       -9.51878
H         87.25292       49.93960       -8.00786
H         88.62650       50.80952       -9.76091
H         87.29402       50.98530      -10.80421
H         87.40097       51.92524       -9.37879
N         83.88189       47.29292       -5.67145
C         84.35462       47.22261       -4.28846
C         83.28096       46.74715       -3.30839
O         83.60293       46.58018       -2.14039
C         84.94957       48.59145       -3.88424
C         84.02702       49.74704       -4.18612
O         82.78702       49.79728       -3.67168
O         84.38730       50.62316       -4.95503
H         83.17509       48.00354       -5.90466
H         85.16710       46.46914       -4.19399
H         85.88466       48.74545       -4.46656
H         85.22491       48.58539       -2.80866
N         82.01611       46.43640       -3.70536
C         81.01345       45.84870       -2.82687
C         80.48832       46.72654       -1.70311
O         79.63878       46.22430       -0.98009
H         81.77020       46.52600       -4.69578
H         81.42696       44.91378       -2.39000
H         80.13257       45.56303       -3.43934
N         80.90914       48.00825       -1.47055
C         80.37664       48.82440       -0.37618
C         79.78217       50.13338       -0.87493
O         79.92340       50.46968       -2.04138
C         81.44440       49.09265        0.71640
C         82.54707       50.05394        0.32292
N         83.48653       49.72558       -0.59090
O         82.60323       51.14609        0.86882
H         81.62006       48.41683       -2.08086
H         79.55512       48.26964        0.12646
H         81.88312       48.13567        1.07199
H         80.91503       49.53928        1.58624
H         83.49650       48.79990       -1.02983
H         84.23133       50.39382       -0.83850
N         79.09321       50.92662       -0.00740
C         78.53822       52.22854       -0.33482
C         77.55871       52.17654       -1.48248
O         76.66387       51.34313       -1.47593
H         78.95610       50.59539        0.95948
H         79.36113       52.94265       -0.55682
H         78.00058       52.60872        0.56036
N         77.64174       53.09928       -2.48146
C         76.72094       53.14551       -3.61399
C         77.06389       52.06578       -4.63491
O         77.97952       51.28964       -4.41236
C         76.76803       54.55312       -4.26888
C         76.31241       55.64866       -3.32912
C         75.01548       55.62640       -2.78210
C         77.16694       56.71780       -3.01169
C         74.58721       56.64760       -1.92950
C         76.73332       57.74226       -2.16285
C         75.44126       57.70916       -1.61809
O         75.00878       58.69068       -0.80082
H         78.35653       53.83979       -2.40125
H         75.68126       52.97857       -3.26074
H         76.08884       54.60319       -5.14295
H         77.79746       54.75167       -4.63757
H         74.32993       54.82228       -3.01586
H         78.16577       56.76492       -3.42665
H         73.58712       56.61580       -1.51483
H         77.40083       58.56278       -1.93211
H         75.56404       59.44758       -0.56550
N         76.36003       51.99549       -5.80510
C         76.61210       51.07864       -6.91412
C         78.01642       51.27802       -7.48106
O         78.99440       51.01478       -6.79681
C         76.26113       49.59901       -6.57371
C         76.43627       48.72250       -7.85052
C         74.81378       49.53119       -6.04617
C         75.89204       47.29184       -7.74820
H         75.58972       52.66260       -5.94922
H         75.88728       51.36325       -7.71119
H         76.92888       49.21415       -5.77201
H         77.51978       48.67736       -8.09550
H         75.91418       49.19462       -8.71123
H         74.55004       48.49768       -5.74265
H         74.69511       50.16017       -5.13948
H         74.09683       49.87793       -6.82098
H         76.28868       46.74700       -6.87320
H         74.78591       47.30102       -7.67064
H         76.15580       46.73369       -8.67173
N         78.17136       51.76716       -8.74438
C         79.46736       52.04576       -9.37249
C         79.35508       52.70057      -10.75791
O         80.32917       53.30491      -11.17943
C         80.34990       50.78455       -9.49326
O         79.72814       49.83872      -10.31959
H         77.30307       52.00461       -9.23285
H         79.98386       52.77872       -8.71393
H         80.54402       50.33075       -8.50122
H         81.33531       51.07886       -9.92381
H         80.41736       49.15387      -10.52369
N         78.23910       52.58852      -11.54365
C         78.11065       53.19111      -12.86609
C         78.15741       54.71408      -12.80095
O         77.51310       55.27214      -11.92360
C         76.76792       52.79065      -13.49195
H         77.44794       52.01709      -11.23130
H         78.89247       52.76970      -13.52309
H         75.92042       53.15708      -12.87293
H         76.67799       53.22044      -14.51221
H         76.70093       51.68515      -13.57341
N         78.78112       55.48490      -13.74439
C         79.49369       54.95096      -14.89897
C         79.64363       56.00658      -15.98990
O         80.22057       57.04764      -15.70640
C         80.89900       54.48028      -14.49324
H         78.65973       56.50798      -13.67334
H         78.92311       54.09663      -15.29561
H         81.42462       54.06290      -15.37922
H         81.49420       55.33081      -14.09602
H         80.87255       53.69620      -13.71554
N         79.21826       55.82724      -17.28044
C         78.54431       54.63014      -17.78400
C         77.07537       54.55565      -17.37177
O         76.45651       53.53409      -17.63916
C         78.69249       54.44605      -19.32143
C         78.05171       55.50079      -20.24661
C         78.81901       56.78951      -20.31162
O         78.22455       57.95135      -19.98232
O         79.98404       56.79068      -20.67930
H         79.45873       56.57552      -17.93937
H         79.07421       53.74251      -17.37816
H         78.20867       53.47409      -19.56684
H         79.76716       54.33435      -19.58403
H         76.99532       55.67745      -19.95306
H         78.05327       55.09029      -21.27978
N         76.43545       55.58231      -16.74138
C         75.03387       55.49879      -16.38231
H         74.41593       55.34224      -17.29316
H         74.86785       54.65638      -15.67771
H         74.70692       56.44092      -15.89343
H         76.93514       56.45440      -16.51951
Ca        81.34365       51.37079       -4.41395
O         82.52651       51.94656       -7.20066
H         83.46156       52.14669       -6.94647
H         82.18380       52.80076       -7.56392
O         81.44640       53.77182       -2.57691
H         82.03629       53.95883       -3.35019
H         81.87473       53.00563       -2.11811
O         80.08981       53.90986       -5.85907
H         79.60335       54.32727       -6.61364
H         80.80895       54.55421       -5.64028

Ca 1.0



