%chk=apoCaM-CA-Ng.loop2.water4.frame1145.chk
%nprocshared=20
%mem=10GB
%nosave
#b3lyp/svp scf=(tight,noincore,xqc) Test 
#IOP(5/87=12) Density=Current Pop=(MK,readradii) iop(6/33=2) iop(6/42=6)

apoCaM-CA-Ng.loop2.water4.frame1145 

   -2  1 
C         90.13100       61.98543       93.71713
C         89.84203       61.70863       95.17014
O         89.12652       60.75691       95.44394
H         91.22295       61.91806       93.52576
H         89.62010       61.24673       93.06445
H         89.76393       62.99845       93.44586
N         90.33982       62.47879       96.18316
C         91.21270       63.62927       95.98023
C         90.56041       64.94198       96.36508
O         89.50984       64.94609       96.98229
C         92.57870       63.40728       96.66063
C         92.66587       63.16531       98.15856
O         93.77930       62.96433       98.61658
O         91.62952       63.13986       99.02986
H         90.08592       62.21990       97.14431
H         91.42896       63.74427       94.90100
H         93.22963       64.27801       96.42890
H         93.03428       62.51641       96.17578
N         91.11307       66.10665       95.91066
C         90.63069       67.46414       96.14880
C         91.11535       67.96910       97.48642
O         91.93910       68.87425       97.49525
C         89.11688       67.64006       95.94449
H         91.94034       66.02990       95.29864
H         91.12080       68.10790       95.38204
H         88.85093       68.71500       96.03238
H         88.82413       67.28620       94.93369
H         88.51857       67.09766       96.70327
N         90.66439       67.43866       98.65640
C         91.16280       67.86634       99.95935
C         91.72611       66.69583      100.74068
O         91.52097       65.55175      100.36310
C         90.05080       68.59590      100.75015
C         88.80299       67.79205      101.04256
O         88.68747       66.63022      100.68755
O         87.79388       68.37257      101.71817
H         89.94406       66.70759       98.62023
H         91.99665       68.58972       99.82600
H         89.74387       69.48954      100.16580
H         90.46667       68.94922      101.71817
N         92.46007       66.92206      101.86528
C         92.94895       65.85470      102.72139
C         91.85572       65.27099      103.59879
O         92.16987       64.42054      104.41891
H         92.68980       67.89327      102.12612
H         93.69660       66.28764      103.42105
H         93.46275       65.07542      102.11778
N         90.56775       65.71966      103.53143
C         89.51355       65.34213      104.46067
C         88.36887       64.65730      103.72949
O         88.45294       64.44600      102.52719
C         89.03969       66.63265      105.16403
C         90.19041       67.30849      105.87265
N         90.61750       68.53463      105.48769
O         90.75236       66.73419      106.79342
H         90.30926       66.42870      102.83809
H         89.88966       64.63163      105.22934
H         88.24571       66.42258      105.90965
H         88.61401       67.31869      104.39817
H         90.16876       69.03141      104.70422
H         91.41164       68.98546      105.96615
N         87.25688       64.26720      104.41152
C         86.15612       63.56559      103.76070
C         84.98852       63.30587      104.69650
O         85.01843       63.75627      105.83329
H         87.21467       64.46853      105.42042
H         86.54443       62.59609      103.38688
H         85.78018       64.16894      102.90569
N         83.89473       62.58180      104.32272
C         83.69852       61.91975      103.03506
C         82.43784       62.43759      102.36891
O         81.43100       62.60839      103.04364
C         83.60299       60.39044      103.23737
C         84.93026       59.81587      103.73818
O         82.58935       60.06241      104.15433
H         83.14933       62.46028      105.02761
H         84.54837       62.09442      102.34226
H         83.40416       59.90214      102.25327
H         81.73838       60.01555      103.64616
H         85.74123       60.03556      103.01078
H         85.20446       60.24824      104.72348
H         84.84688       58.71380      103.84417
N         82.42000       62.67330      101.02394
C         81.25809       63.21197      100.31300
C         80.70235       62.18897       99.31997
O         81.43551       61.28182       98.95023
C         81.64128       64.55598       99.61325
C         82.69763       64.34774       98.48873
C         82.11353       65.56517      100.67555
C         83.12711       65.63528       97.78573
H         83.26932       62.45213      100.48537
H         80.46125       63.42373      101.05099
H         80.73829       64.98573       99.13479
H         82.26301       63.67427       97.71846
H         83.61804       63.87378       98.88082
H         82.28422       66.56497      100.22908
H         81.33207       65.68831      101.45529
H         83.05334       65.22377      101.15963
H         83.80932       65.38407       96.94604
H         82.25252       66.18061       97.38749
H         83.68011       66.30040       98.47872
N         79.42188       62.22896       98.83156
C         78.36769       63.10892       99.33681
C         77.28403       63.38656       98.29404
O         77.31415       62.83138       97.20474
C         77.74785       62.49251      100.62128
C         77.08346       61.16016      100.38640
O         77.73473       60.20015      100.00626
O         75.76693       61.01308      100.62867
H         79.14603       61.47239       98.18544
H         78.79449       64.09558       99.59199
H         76.99808       63.19211      101.04535
H         78.52681       62.35141      101.39760
N         76.26918       64.24551       98.60474
C         75.11684       64.52488       97.75356
C         74.97558       66.03188       97.54375
O         75.07171       66.74289       98.53524
C         73.86855       63.97004       98.46532
C         72.63419       64.09792       97.60973
C         71.85314       65.26537       97.65009
C         72.26531       63.05206       96.74671
C         70.72054       65.38205       96.83887
C         71.13360       63.17395       95.93606
C         70.36149       64.33767       95.98221
H         76.28133       64.69416       99.53292
H         75.19247       63.97993       96.79700
H         73.70793       64.45331       99.45440
H         74.04399       62.89056       98.67176
H         72.12275       66.08376       98.30588
H         72.85888       62.14748       96.69539
H         70.12261       66.28332       96.87249
H         70.85731       62.36678       95.27011
H         69.48599       64.43028       95.35304
N         74.67114       66.61766       96.33636
C         74.36351       65.93848       95.08189
C         75.51924       65.13977       94.54347
O         75.35885       63.95569       94.28196
C         73.99370       67.07914       94.11885
C         73.40236       68.09909       95.06709
C         74.40019       68.03745       96.21619
H         73.46896       65.29825       95.23728
H         74.90825       67.55223       93.69595
H         73.34247       66.77226       93.27269
H         73.25889       69.11298       94.63688
H         72.42130       67.71382       95.42817
H         75.34651       68.55567       95.94166
H         73.96074       68.49403       97.12909
N         76.73461       65.72959       94.38432
C         77.89570       64.99848       93.92528
C         77.86101       64.94611       92.40374
O         77.97148       66.00867       91.80739
C         79.22151       65.64274       94.41052
C         79.40609       65.64186       95.94707
C         78.72953       66.74282       96.73017
O         78.17492       67.67886       96.18033
O         78.82721       66.74313       98.07273
H         76.82767       66.72384       94.61136
H         77.88821       64.00524       94.40496
H         79.38204       66.66400       94.00095
H         80.02725       64.99186       94.00335
H         80.48375       65.76470       96.15146
H         79.10708       64.65131       96.34677
N         77.70161       63.80845       91.66240
C         77.48968       62.46266       92.15980
H         76.52218       62.08547       91.76614
H         78.30234       61.80365       91.79165
H         77.44746       62.37434       93.25501
H         77.70771       63.90643       90.63494
Ca        89.38252       63.43571       99.17228
O         87.77814       61.59887      101.05817
H         86.92584       61.13712      100.85702
H         88.05449       61.24108      101.93905
O         87.03934       61.97833       97.68658
H         87.73115       61.27068       97.71280
H         87.33008       62.58628       96.96081
O         90.83835       62.64256      101.96755
H         90.41506       62.44154      102.83969
H         91.17824       61.76924      101.64910
O         86.26551       64.42705       99.30059
H         86.29147       64.80846       98.38693
H         86.08659       65.20253       99.88915

Ca 1.0



