%chk=apoCaM-CA-Ng.loop2.water5.frame508.chk
%nprocshared=20
%mem=10GB
%nosave
#b3lyp/svp scf=(tight,noincore,xqc) Test 
#IOP(5/87=12) Density=Current Pop=(MK,readradii) iop(6/33=2) iop(6/42=6)

apoCaM-CA-Ng.loop2.water5.frame508 

   -2  1 
C        -16.17981       76.45768       48.92896
C        -16.30691       77.94281       49.09798
O        -15.61589       78.67348       48.40186
H        -15.13501       76.15224       49.14957
H        -16.85882       75.91017       49.61565
H        -16.42719       76.17769       47.88391
N        -17.15668       78.46909       50.02588
C        -17.26598       79.90741       50.25500
C        -17.80453       80.64723       49.04084
O        -18.30599       80.01867       48.11661
C        -18.12779       80.20381       51.50889
C        -19.55988       79.72191       51.44473
O        -20.00114       79.15211       50.45879
O        -20.36505       79.91717       52.50622
H        -17.69924       77.82115       50.61773
H        -16.24030       80.28665       50.45879
H        -18.13996       81.29810       51.69866
H        -17.64582       79.71469       52.38250
N        -17.72049       82.00818       48.98347
C        -18.26869       82.78787       47.87796
C        -17.64388       82.39916       46.53893
O        -16.54549       81.86544       46.53958
C        -18.05030       84.28740       48.12373
H        -17.27195       82.50432       49.76954
H        -19.35456       82.56131       47.86770
H        -18.48863       84.90042       47.30936
H        -18.52190       84.59035       49.08223
H        -16.96192       84.50970       48.17824
N        -18.29126       82.56581       45.34321
C        -19.62909       83.12693       45.18778
C        -20.62225       82.03717       44.85725
O        -20.21786       80.91007       44.58621
C        -19.63304       84.24755       44.12371
C        -19.24464       83.76531       42.74770
O        -19.92472       82.93393       42.16656
O        -18.15316       84.26882       42.14081
H        -17.82377       82.20700       44.49468
H        -19.97889       83.58209       46.13071
H        -18.92177       85.03859       44.44463
H        -20.64363       84.70476       44.05905
N        -21.95481       82.28774       44.90872
C        -22.93580       81.27676       44.55926
C        -24.35002       81.64737       44.96795
O        -24.52434       82.59210       45.72971
H        -22.26504       83.22575       45.21242
H        -22.68987       80.33087       45.08549
H        -22.86649       81.11043       43.46424
N        -25.44278       80.95856       44.53026
C        -25.39941       79.91468       43.50283
C        -24.59403       78.70488       43.95898
O        -24.39178       78.52697       45.15200
C        -26.85037       79.55879       43.08806
C        -26.97593       78.76247       41.81027
N        -27.54602       79.31991       40.71389
O        -26.58756       77.60635       41.76357
H        -26.36427       81.26536       44.88091
H        -24.90167       80.37067       42.61936
H        -27.37786       80.52328       42.92068
H        -27.37859       79.03813       43.91661
H        -27.89060       80.29164       40.72892
H        -27.63962       78.78278       39.83965
N        -24.05671       77.85126       43.04198
C        -23.22357       76.72589       43.43006
C        -22.82791       75.90031       42.22736
O        -23.15030       74.72111       42.19404
H        -24.22331       78.02849       42.04175
H        -23.78415       76.08135       44.14300
H        -22.30903       77.10209       43.93884
N        -22.13188       76.45977       41.19570
C        -21.73775       75.72525       39.99237
C        -20.21557       75.65861       39.89259
O        -19.54495       76.14327       40.79436
C        -22.42370       76.33682       38.74958
C        -23.95409       76.29098       38.88879
O        -22.00400       77.66132       38.56726
H        -21.87763       77.45659       41.25741
H        -22.07904       74.66825       40.05524
H        -22.14237       75.72595       37.86215
H        -22.21977       77.90299       37.62850
H        -24.29520       76.90624       39.74831
H        -24.43307       76.68621       37.96868
H        -24.29826       75.24516       39.04015
N        -19.60338       74.98320       38.86978
C        -18.18356       74.62257       38.89368
C        -17.42120       75.22359       37.70699
O        -17.79368       74.96820       36.57080
C        -18.06052       73.06433       38.91198
C        -16.58753       72.64785       39.15189
C        -18.97738       72.45277       39.99802
C        -16.32657       71.14692       39.04147
H        -20.17895       74.59862       38.10604
H        -17.72432       74.98963       39.83118
H        -18.40033       72.67441       37.92666
H        -16.28005       72.97933       40.16257
H        -15.93582       73.14013       38.40180
H        -18.93857       71.34627       39.98770
H        -18.69332       72.81948       41.00747
H        -20.04147       72.71077       39.81464
H        -16.59970       70.78625       38.02817
H        -15.24538       70.95637       39.21007
H        -16.88536       70.57258       39.80642
N        -16.31428       76.00660       37.91399
C        -15.51209       76.63445       36.86582
C        -14.04115       76.19535       36.87008
O        -13.30116       76.72319       36.04965
C        -15.49215       78.16077       37.09770
C        -16.84831       78.75664       37.28979
O        -17.12457       79.39027       38.44367
O        -17.69438       78.68573       36.41409
H        -16.03311       76.21213       38.87144
H        -15.94942       76.41536       35.86690
H        -14.98995       78.66792       36.24513
H        -14.90140       78.37280       38.01825
N        -13.52329       75.28203       37.74949
C        -12.09052       74.98698       37.82881
C        -11.59597       75.04181       39.28499
O        -11.11517       74.03248       39.78215
C        -11.80128       73.64240       37.11929
C        -10.32637       73.27800       37.12067
C         -9.35579       74.15030       36.58693
C         -9.90843       72.05115       37.66655
C         -7.99998       73.80564       36.61805
C         -8.55301       71.70784       37.68643
C         -7.59920       72.58585       37.16726
H        -14.15100       74.76871       38.37952
H        -11.51071       75.74392       37.26252
H        -12.13158       73.73055       36.06084
H        -12.40311       72.83768       37.59479
H         -9.63825       75.10103       36.15486
H        -10.63147       71.35823       38.07739
H         -7.25829       74.48523       36.21722
H         -8.24183       70.76087       38.10789
H         -6.54982       72.32034       37.18972
N        -11.63009       76.19452       40.03184
C        -11.02172       76.33533       41.35995
C        -11.60879       75.48790       42.48169
O        -11.10177       75.55434       43.59299
C        -11.26992       77.80874       41.70955
C        -11.25946       78.46687       40.34949
C        -12.07629       77.47642       39.52799
H         -9.93508       76.12347       41.24393
H        -12.31074       77.92442       42.09704
H        -10.56816       78.23020       42.46052
H        -11.64620       79.50764       40.32967
H        -10.21018       78.45875       39.97657
H        -13.16341       77.57635       39.74448
H        -11.87259       77.64517       38.45140
N        -12.72253       74.73816       42.28834
C        -13.39146       73.99159       43.34125
C        -12.59006       72.74257       43.63398
O        -12.33638       72.45357       44.79499
C        -14.87755       73.65876       43.00874
C        -15.79917       74.91230       42.86300
C        -15.70415       75.61249       41.53277
O        -16.35579       76.76384       41.26966
O        -15.09806       75.09128       40.62181
H        -13.10261       74.70049       41.35118
H        -13.45575       74.61658       44.26099
H        -15.26278       73.09927       43.88989
H        -14.97245       72.98468       42.13142
H        -15.58079       75.62167       43.68938
H        -16.86092       74.59804       42.95730
N        -12.09782       71.98660       42.61204
C        -11.26800       70.82462       42.83958
H        -10.37850       71.10450       43.44482
H        -11.84938       70.04192       43.36847
H        -10.91341       70.41810       41.86791
H        -12.27850       72.26737       41.63618
Ca       -17.71445       78.00646       42.55120
O        -19.80209       79.83545       39.11093
H        -20.76749       79.81571       39.32357
H        -19.61532       78.94078       38.72998
O        -19.34977       76.78061       44.53464
H        -18.70123       77.42130       44.92296
H        -18.78825       76.05649       44.15800
O        -16.09784       80.19094       43.76065
H        -16.61136       79.80791       44.51610
H        -15.55701       79.43509       43.41893
O        -20.44993       79.57588       41.99772
H        -21.38579       79.87216       41.86866
H        -20.47439       79.02942       42.82246
O        -17.14990       81.13003       40.77159
H        -17.64374       81.50870       41.54066
H        -16.73588       81.91336       40.32941

Ca 1.0



