%chk=apoCaM-CA-Ng.loop4.water4.frame758.chk
%nprocshared=20
%mem=10GB
%nosave
#b3lyp/svp scf=(tight,noincore,xqc) Test 
#IOP(5/87=12) Density=Current Pop=(MK,readradii) iop(6/33=2) iop(6/42=6)

apoCaM-CA-Ng.loop4.water4.frame758 

   -3  1 
C        102.02648       33.15373       15.77075
C        103.52472       33.21148       15.64666
O        104.12552       32.22941       15.23779
H        101.57327       32.96016       14.77706
H        101.73301       32.34360       16.46841
H        101.61219       34.11151       16.15131
N        104.19273       34.35368       15.97027
C        105.63524       34.54650       15.85520
C        106.10287       34.38391       14.41703
O        107.06604       33.67060       14.16489
C        106.42543       33.63611       16.82593
C        106.04523       33.85565       18.25944
O        105.60599       32.82339       19.00340
O        106.16722       34.95897       18.76699
H        103.64376       35.16314       16.29910
H        105.84911       35.60279       16.13362
H        107.51026       33.85727       16.72876
H        106.26984       32.56704       16.56587
N        105.45025       35.02489       13.40813
C        105.89692       34.93991       12.02062
C        107.14420       35.80753       11.81416
O        107.19456       36.87045       12.41804
C        104.78285       35.34774       11.00160
C        104.26997       36.80483       11.18712
C        103.62909       34.32673       11.05099
C        103.37763       37.28451       10.04080
H        104.59953       35.55510       13.64144
H        106.10473       33.87439       11.81691
H        105.23611       35.27171        9.99030
H        105.12835       37.50469       11.21181
H        103.71039       36.90875       12.13989
H        104.01926       33.30178       10.87022
H        103.12173       34.34339       12.03820
H        102.88052       34.52266       10.25819
H        103.07948       38.33844       10.22533
H        103.93644       37.24146        9.08150
H        102.45156       36.68306        9.95620
N        108.14364       35.53546       10.91622
C        108.29332       34.32128       10.11520
C        109.72167       33.78684       10.28462
O        110.55786       34.47972       10.85121
C        107.99869       34.67826        8.63778
C        107.67357       33.52558        7.71719
O        107.48756       33.74975        6.53241
O        107.47391       32.27750        8.17985
H        108.85430       36.27274       10.77842
H        107.57718       33.55524       10.44521
H        108.85307       35.26652        8.23743
H        107.10197       35.33162        8.59745
N        110.08023       32.55804        9.82906
C        111.44364       32.06051        9.91570
C        111.47410       30.60640        9.53261
O        112.11079       30.23506        8.55706
H        109.36346       31.94457        9.42937
H        111.81686       32.13989       10.96022
H        112.09972       32.66862        9.25451
N        110.77755       29.72435       10.29749
C        110.68759       28.29761       10.03110
C        110.02691       28.01537        8.69469
O        110.59584       27.26452        7.91340
C        109.99046       27.56506       11.20772
C        108.62975       28.08176       11.61356
O        108.46297       28.61734       12.83799
O        107.66699       27.98644       10.87294
H        110.29148       30.09993       11.12644
H        111.71529       27.86816        9.99692
H        110.65671       27.68271       12.09032
H        109.92439       26.47768       10.98594
N        108.83714       28.58332        8.34653
C        108.16634       28.26528        7.09818
C        107.61033       26.85086        7.06394
O        107.10916       26.46866        6.01700
H        108.40709       29.28697        8.96365
H        108.87684       28.42212        6.25721
H        107.30837       28.95694        6.94949
N        107.60679       26.03538        8.16749
C        107.06263       24.67877        8.20509
C        105.56157       24.60429        7.94395
O        105.04926       23.49310        7.93520
C        107.86644       23.73440        7.27319
C        109.32205       23.53554        7.74870
C        109.44864       22.74412        9.03902
N        110.66963       22.51427        9.57263
O        108.46077       22.28977        9.59861
H        108.00364       26.37645        9.04954
H        107.16899       24.29445        9.24007
H        107.86513       24.13901        6.24087
H        107.39367       22.72923        7.22593
H        109.81175       24.52576        7.86496
H        109.87231       22.96948        6.96723
H        111.51982       22.87833        9.11961
H        110.76403       21.96949       10.44339
N        104.77610       25.71392        7.79728
C        103.32725       25.64258        7.60958
C        102.56923       26.26084        8.77661
O        101.34798       26.17975        8.76778
C        102.90584       26.32304        6.27610
C        103.19508       27.83686        6.26080
C        103.57865       25.64628        5.07553
H        105.20095       26.64697        7.85167
H        103.00058       24.58041        7.56314
H        101.80674       26.19265        6.15736
H        104.28144       28.04771        6.33766
H        102.82334       28.28470        5.31536
H        102.67293       28.34585        7.09868
H        103.21929       26.10360        4.12923
H        104.68161       25.75862        5.12289
H        103.32950       24.56435        5.05616
N        103.20359       26.91715        9.79349
C        102.49482       27.57725       10.88081
C        102.94501       27.01975       12.21901
O        103.98257       26.37330       12.29330
C        102.76647       29.09052       10.76228
C        102.10361       29.92550       11.82423
N        102.84749       30.69849       12.64866
O        100.88647       29.91816       11.93254
H        104.22959       27.00054        9.79478
H        101.40039       27.39927       10.79208
H        102.39806       29.43831        9.77242
H        103.86585       29.25678       10.78975
H        103.87471       30.72840       12.56703
H        102.39415       31.27504       13.36918
N        102.15785       27.18253       13.31990
C        102.52116       26.64636       14.63048
C        101.32311       26.65241       15.57656
O        100.31501       27.27455       15.26792
C        103.66095       27.52041       15.21542
C        104.36885       26.92976       16.40658
C        104.27248       27.52518       17.67550
C        105.17951       25.79567       16.23937
C        104.97633       26.99024       18.75997
C        105.89107       25.26986       17.32080
C        105.79403       25.86346       18.58336
O        106.49435       25.34738       19.61364
H        101.25136       27.65161       13.18478
H        102.82763       25.58716       14.48088
H        103.22796       28.51623       15.46361
H        104.44767       27.70375       14.45350
H        103.65555       28.40133       17.82579
H        105.27858       25.33376       15.26479
H        104.89358       27.45715       19.73348
H        106.52647       24.40543       17.17395
H        106.46618       25.73270       20.50090
N        101.35835       25.96793       16.75534
C        100.27443       26.03242       17.72684
C        100.84370       26.54795       19.03091
O        101.48372       25.77142       19.72739
C         99.60286       24.65737       17.92914
C         98.92473       24.14754       16.65042
C         98.24130       22.83227       16.89845
O         98.56924       21.83979       16.26816
O         97.25363       22.74416       17.81068
H        102.18756       25.39893       16.98440
H         99.48030       26.71323       17.37865
H         98.82790       24.75945       18.72202
H        100.35651       23.91156       18.26749
H         99.68434       24.02846       15.84736
H         98.16208       24.88139       16.31120
N        100.75609       27.85018       19.42772
C        100.15645       28.94437       18.66309
C         98.64815       28.82124       18.58643
O         98.00322       28.70282       19.61919
C        100.50247       30.29895       19.31479
C        102.00849       30.59779       19.23848
C        102.32789       31.89460       19.91713
O        102.84651       32.91632       19.21238
O        102.13388       32.02374       21.11546
H        101.22073       28.08475       20.31922
H        100.58970       28.96693       17.63766
H        100.15669       30.29944       20.37249
H         99.97177       31.11366       18.77161
H        102.31144       30.65161       18.16969
H        102.60533       29.79876       19.72482
N         98.01984       28.89828       17.37802
C         96.58202       28.83959       17.21330
H         96.22693       29.79247       16.76583
H         96.32426       28.00561       16.52817
H         96.05050       28.68562       18.17525
H         98.58279       29.03416       16.52489
Ca       103.42808       34.82887       20.26636
O        104.85687       36.13840       22.80524
H        105.49045       35.86537       23.51546
H        104.58158       37.05557       23.05661
O        104.67791       32.81048       23.22010
H        105.58437       32.43362       23.35011
H        104.11499       32.33618       23.88241
O        107.18729       34.26467       21.59174
H        107.87574       33.94703       20.95500
H        107.50946       35.15505       21.88109
O        101.61940       34.85901       22.72966
H        101.82189       35.82830       22.73902
H        100.64886       34.80974       22.54016

Ca 1.0



