%chk=apoCaM-CA-Ng.loop3.water3.frame823.chk
%nprocshared=20
%mem=10GB
%nosave
#b3lyp/svp scf=(tight,noincore,xqc) Test 
#IOP(5/87=12) Density=Current Pop=(MK,readradii) iop(6/33=2) iop(6/42=6)

apoCaM-CA-Ng.loop3.water3.frame823 

   0  1 
C         67.83862      105.35625       77.47085
C         68.92209      106.34075       77.13480
O         69.81160      106.54480       77.94576
H         67.10458      105.25892       76.64213
H         68.29457      104.35691       77.63996
H         67.30318      105.67627       78.38654
N         68.93675      106.95341       75.92165
C         70.04026      107.79797       75.46573
C         70.06056      109.15178       76.19986
O         69.08615      109.46894       76.86797
C         69.88895      107.93666       73.92994
C         71.10171      108.30101       73.13410
O         70.97941      108.44905       71.92960
O         72.32567      108.41204       73.67094
H         68.17915      106.71660       75.26064
H         70.96896      107.24854       75.66275
H         69.05793      108.64498       73.72038
H         69.60104      106.94878       73.50629
N         71.12185      110.01232       76.09507
C         71.12640      111.38408       76.61981
C         71.13596      112.40973       75.48389
O         70.78415      113.55020       75.75377
C         72.33668      111.66419       77.55043
C         72.16014      111.23660       79.01645
C         73.42104      111.62150       79.82189
C         73.21523      111.51162       81.33956
N         74.43758      111.88127       82.05872
H         71.95038      109.70338       75.57752
H         70.18396      111.59095       77.17311
H         72.48909      112.76580       77.60120
H         73.25616      111.22700       77.11335
H         71.96155      110.14783       79.11147
H         71.28837      111.79757       79.42114
H         73.68992      112.68029       79.60989
H         74.26735      110.97499       79.50084
H         72.92208      110.47630       81.61616
H         72.39706      112.20399       81.64227
H         75.20531      111.20853       81.83113
H         74.73551      112.85097       81.80109
H         74.25678      111.85193       83.08829
N         71.53367      112.10985       74.21255
C         71.47215      113.05581       73.09772
C         70.62661      112.50328       71.94824
O         70.51813      113.17766       70.93384
C         72.90279      113.49691       72.68765
C         73.86351      112.36812       72.45658
O         73.70141      111.50032       71.44979
O         74.78943      112.20056       73.23316
H         71.90925      111.17568       74.00454
H         70.96429      113.99715       73.40313
H         73.30083      114.08969       73.54178
H         72.87494      114.16908       71.80418
N         69.93487      111.32574       72.05641
C         69.03501      110.81338       71.03112
C         69.70520      110.36436       69.74368
O         68.97847      109.96955       68.84299
H         69.96685      110.79397       72.93466
H         68.27996      111.59676       70.80017
H         68.48878      109.93452       71.43862
N         71.05728      110.40954       69.56076
C         71.71163      110.09912       68.29365
C         72.83294      109.07978       68.45410
O         73.72104      109.27347       69.27071
C         72.29754      111.39720       67.70830
C         71.21426      112.38304       67.34194
N         70.29985      112.08163       66.38819
O         71.17071      113.46886       67.89974
H         71.65439      110.74801       70.32254
H         70.98596      109.70430       67.55091
H         72.87068      111.17001       66.78336
H         72.99544      111.85064       68.44749
H         70.32872      111.17886       65.89193
H         69.56463      112.75735       66.13328
N         72.90855      108.02535       67.59349
C         74.03725      107.11065       67.50585
C         74.13036      106.13606       68.65473
O         73.15577      105.44990       68.92865
H         72.17679      107.92514       66.87378
H         74.98087      107.68472       67.36864
H         73.90022      106.49224       66.59327
N         75.31522      105.94776       69.30588
C         75.50884      104.92693       70.34082
C         74.67289      105.20869       71.57205
O         74.00313      106.22794       71.62628
C         77.01075      104.80513       70.69554
C         77.74688      104.09886       69.58129
C         78.43677      104.80876       68.58599
C         77.72092      102.69332       69.52833
C         79.07721      104.12068       67.54744
C         78.37223      102.00899       68.50025
C         79.04638      102.71774       67.50254
O         79.65482      102.04135       66.50729
H         76.12522      106.51388       69.00948
H         75.16402      103.94419       69.94730
H         77.17329      104.20420       71.61618
H         77.43521      105.81056       70.91037
H         78.46463      105.89043       68.60188
H         77.19754      102.12623       70.28899
H         79.59343      104.67768       66.77610
H         78.34643      100.92632       68.47667
H         80.12012      102.49024       65.78746
N         74.63167      104.28105       72.58175
C         73.78885      104.36994       73.77266
C         74.20528      105.54097       74.65383
O         74.33598      106.65089       74.15822
C         72.27364      104.40993       73.39701
C         71.34751      104.41054       74.64339
C         71.89844      103.25262       72.45063
C         71.37711      103.14752       75.50945
H         75.19302      103.42295       72.47860
H         73.94238      103.43485       74.35366
H         72.06729      105.35668       72.85471
H         70.29868      104.56727       74.30893
H         71.62672      105.25684       75.29081
H         70.82054      103.30472       72.18739
H         72.47598      103.31108       71.50474
H         72.10952      102.26748       72.91640
H         72.38757      102.95402       75.91756
H         70.68688      103.28635       76.36862
H         71.03373      102.26151       74.93903
N         74.36166      105.37950       75.99825
C         74.69019      106.48120       76.89853
C         75.82357      106.16930       77.86208
O         76.18320      107.05572       78.62161
C         73.44760      106.82686       77.72922
O         73.08188      105.72191       78.51575
H         74.14231      104.45732       76.40499
H         74.97662      107.38128       76.31658
H         72.63483      107.10276       77.03111
H         73.64179      107.70164       78.38717
H         72.09902      105.75470       78.62845
N         76.36882      104.92036       77.96938
C         77.27129      104.58398       79.06331
C         78.60590      105.30340       78.96231
O         78.94085      105.76045       77.87749
C         77.49593      103.07610       79.09919
H         76.05736      104.16618       77.34597
H         76.74948      104.88728       79.99621
H         77.97404      102.72969       78.15844
H         78.14864      102.81849       79.94399
H         76.52456      102.55172       79.22737
N         79.42289      105.51565       80.04086
C         79.11212      105.16995       81.42894
C         80.32894      104.58303       82.14476
O         81.38922      105.18477       82.04851
C         78.69874      106.45315       82.15248
H         80.27295      106.07857       79.87796
H         78.24602      104.49559       81.49762
H         79.51540      107.20603       82.13106
H         77.80252      106.88798       81.65911
H         78.43870      106.22869       83.20942
N         80.28329      103.48090       82.95876
C         79.07922      102.71294       83.26176
C         78.80557      101.65964       82.20359
O         77.71458      101.10581       82.20665
C         79.20251      101.99380       84.62378
C         79.36632      102.97131       85.79657
C         79.44147      102.22840       87.10013
O         78.51202      102.43935       88.05164
O         80.34583      101.43433       87.30610
H         81.15248      103.23028       83.45732
H         78.21409      103.40431       83.35145
H         80.06653      101.29220       84.59379
H         78.27776      101.40020       84.80337
H         78.49438      103.66063       85.82045
H         80.29020      103.57549       85.67721
N         79.75685      101.28102       81.30171
C         79.51516      100.23930       80.32614
H         78.69571      100.53468       79.64013
H         80.43321      100.06202       79.72733
H         79.23734       99.29451       80.83979
H         80.69226      101.71152       81.31796
Ca        73.69212      109.40183       72.20769
O         76.74202      108.31327       73.70312
H         77.27671      107.76982       73.07180
H         76.98805      107.96968       74.59876
O         74.76761      109.80754       75.36237
H         75.27105      109.79357       76.21456
H         74.50643      110.75369       75.24915
O         76.47442      109.74392       70.89215
H         76.04194      110.31954       70.21265
H         77.06137      109.14118       70.37044

Ca 1.0



