%chk=apoCaM-CA-Ng.loop4.water4.frame157.chk
%nprocshared=20
%mem=10GB
%nosave
#b3lyp/svp scf=(tight,noincore,xqc) Test 
#IOP(5/87=12) Density=Current Pop=(MK,readradii) iop(6/33=2) iop(6/42=6)

apoCaM-CA-Ng.loop4.water4.frame157 

   -3  1 
C         47.87692       54.07549       46.79554
C         47.21782       53.03572       47.64774
O         47.61337       51.89555       47.55730
H         48.67316       53.61391       46.16918
H         47.12961       54.54946       46.12819
H         48.34488       54.84241       47.44626
N         46.19966       53.36633       48.49118
C         45.48346       52.47785       49.41772
C         46.26531       51.25936       50.01141
O         46.00103       49.99195       49.46235
C         44.05236       52.20044       48.92001
C         44.00404       51.58865       47.54230
O         44.53146       50.37631       47.30107
O         43.46610       52.19442       46.62890
H         45.88473       54.34865       48.47636
H         45.36255       53.07901       50.34623
H         43.52022       53.17723       48.87262
H         43.51038       51.55793       49.64619
N         47.68548       51.55200       50.27756
C         48.42898       50.72614       51.25934
C         47.55887       50.13888       52.36842
O         47.56319       50.69434       53.45858
C         49.35795       49.69759       50.55047
C         50.24118       48.88315       51.53391
C         50.24381       50.39153       49.49617
C         51.22033       49.70781       52.37827
H         47.71973       52.53851       50.62967
H         49.12364       51.43549       51.76695
H         48.72422       48.96798       50.00642
H         50.83708       48.15846       50.94106
H         49.59259       48.29936       52.22085
H         50.88519       51.17309       49.95167
H         50.88908       49.64722       48.98243
H         49.62377       50.88264       48.72276
H         50.68348       50.41364       53.04335
H         51.81546       49.02347       53.01839
H         51.93132       50.26999       51.73971
N         46.84660       48.98644       52.19021
C         46.01456       48.39359       53.23290
C         46.71096       47.21483       53.92724
O         46.89897       47.33903       55.13032
C         44.60691       48.05935       52.69574
C         43.82767       49.27551       52.25903
O         42.69740       49.13633       51.82064
O         44.34415       50.51604       52.36138
H         46.91108       48.50009       51.28859
H         45.84896       49.13807       54.04609
H         44.02360       47.56211       53.50099
H         44.67208       47.37387       51.83234
N         47.14236       46.05283       53.34413
C         47.04302       45.70921       51.93303
C         47.64065       44.33904       51.60325
O         48.13727       43.67888       52.50499
H         47.58570       45.37565       53.98317
H         47.60629       46.46192       51.35859
H         45.98363       45.69790       51.65854
N         47.68476       43.81413       50.33683
C         47.16184       44.40323       49.10295
C         47.75291       45.78265       48.87849
O         47.00576       46.74818       48.82633
C         45.61714       44.37758       49.07221
C         45.09259       42.98591       49.29087
O         45.39614       42.08400       48.52597
O         44.28699       42.72747       50.33849
H         48.16069       42.90391       50.22860
H         47.47448       43.76373       48.24700
H         45.26335       44.73920       48.08328
H         45.18238       45.04518       49.83255
N         49.09654       45.99074       48.79358
C         50.10153       44.94141       48.77807
C         50.88870       44.91988       50.05736
O         50.56867       45.64634       50.98822
H         49.43763       46.96308       48.74060
H         50.77823       45.12707       47.91678
H         49.67454       43.93212       48.63375
N         51.97107       44.10365       50.15474
C         52.83973       44.07108       51.32165
C         54.12571       44.83959       51.05922
O         54.94814       44.90596       51.96040
C         53.09868       42.61881       51.78768
C         53.84127       41.74896       50.75804
C         54.15957       40.38971       51.32917
N         53.66923       39.26297       50.76118
O         54.87891       40.30453       52.31371
H         52.23919       43.55899       49.32093
H         52.35479       44.59384       52.17598
H         52.12842       42.13674       52.04001
H         53.70495       42.66498       52.71960
H         54.79573       42.23671       50.47502
H         53.22245       41.63431       49.84471
H         53.06225       39.30747       49.93001
H         53.89725       38.33832       51.15631
N         54.34084       45.49686       49.87574
C         55.51780       46.32289       49.62508
C         56.34450       45.80696       48.45390
O         57.43472       46.33168       48.26083
C         55.10691       47.80920       49.42200
C         54.34925       48.34499       50.64753
C         54.25445       48.01800       48.16347
H         53.63239       45.45510       49.13397
H         56.19109       46.28587       50.50886
H         56.03406       48.41260       49.30482
H         54.97111       48.24285       51.56122
H         54.10642       49.42014       50.50901
H         53.39687       47.79235       50.80048
H         53.29542       47.47099       48.23947
H         54.02344       49.09633       48.03131
H         54.79833       47.67075       47.26020
N         55.92508       44.78829       47.64352
C         56.76744       44.19661       46.61175
C         56.18496       44.35803       45.21635
O         56.89265       44.84204       44.34517
C         56.96941       42.69565       46.91009
C         57.54259       42.44958       48.28521
N         58.74152       42.96209       48.64729
O         56.91378       41.77081       49.08234
H         54.99681       44.36518       47.78462
H         57.77534       44.66774       46.60536
H         57.65645       42.25826       46.15296
H         55.99347       42.16695       46.83308
H         59.29456       43.53321       47.99326
H         59.11807       42.78729       49.59104
N         54.93162       43.90863       44.91356
C         54.43568       43.78310       43.54412
C         53.19727       44.62353       43.28885
O         52.26972       44.58349       44.08320
C         54.06275       42.30742       43.29566
C         55.21483       41.36264       43.52855
C         56.35041       41.39191       42.70201
C         55.15201       40.42996       44.57675
C         57.40335       40.49706       42.92113
C         56.20733       39.54358       44.79878
C         57.33416       39.56985       43.97215
O         58.33904       38.69942       44.19532
H         54.33502       43.54574       45.67177
H         55.21670       44.06022       42.80278
H         53.70355       42.16901       42.25334
H         53.22263       42.04470       43.97672
H         56.41631       42.09772       41.88329
H         54.28747       40.39127       45.22771
H         58.27013       40.52290       42.27282
H         56.14565       38.83331       45.61340
H         59.13275       38.67615       43.64242
N         53.07422       45.29388       42.10129
C         51.85509       45.94559       41.61662
C         51.49014       47.22352       42.35199
O         50.45755       47.79456       42.02616
C         50.65186       44.96404       41.58736
C         50.94777       43.63511       40.87179
C         51.41236       43.82646       39.45706
O         50.69425       44.38020       38.64035
O         52.62740       43.38060       39.08369
H         53.86289       45.25576       41.43791
H         52.03834       46.25745       40.56400
H         49.79695       45.45978       41.07637
H         50.31731       44.72951       42.61939
H         50.02711       43.01334       40.86979
H         51.72163       43.08012       41.43745
N         52.29612       47.77055       43.30430
C         51.96240       48.99916       44.01644
C         52.92763       50.12689       43.67466
O         52.71601       51.23114       44.15880
C         52.02716       48.72170       45.52508
C         51.11020       47.58184       45.99160
C         49.67116       47.97099       46.00861
O         48.82582       47.30883       45.43014
O         49.32212       49.01404       46.77472
H         53.18994       47.31486       43.53802
H         50.94236       49.35221       43.74608
H         51.80808       49.64326       46.11080
H         53.07049       48.42222       45.74736
H         51.36628       47.35423       47.04452
H         51.27550       46.65985       45.39856
N         54.00949       49.94215       42.86320
C         54.92689       51.01720       42.55546
H         55.74825       50.63971       41.90970
H         54.39316       51.82852       42.01729
H         55.36995       51.41883       43.49186
H         54.21309       49.01989       42.45471
Ca        47.34333       49.39277       47.73120
O         46.08619       45.78774       45.65408
H         46.77033       45.10692       45.87527
H         46.37150       46.59694       46.14799
O         46.28918       49.23146       44.59311
H         45.49796       49.41244       44.02590
H         47.05126       49.22185       43.96090
O         44.09589       47.70609       48.97885
H         43.57531       46.97351       49.39323
H         43.59604       48.52777       49.21303
O         43.62111       47.71824       45.88507
H         43.00852       47.06934       46.31399
H         43.08081       48.54192       45.78605

Ca 1.0



