%chk=apoCaM-CA-Ng.loop1.water4.frame364.chk
%nprocshared=20
%mem=10GB
%nosave
#b3lyp/svp scf=(tight,noincore,xqc) Test 
#IOP(5/87=12) Density=Current Pop=(MK,readradii) iop(6/33=2) iop(6/42=6)

apoCaM-CA-Ng.loop1.water4.frame364 

   0  1 
C         32.28575      103.52544       35.34252
C         32.53101      102.94299       33.97996
O         33.57486      103.20294       33.39908
H         31.30317      103.20440       35.75101
H         33.07912      103.18660       36.04090
H         32.29479      104.63299       35.28291
N         31.60678      102.12291       33.41145
C         31.78713      101.48660       32.11098
C         31.64089      102.46366       30.94013
O         31.68124      101.99315       29.81699
C         30.74602      100.34786       31.92651
C         30.90658       99.23166       32.92959
O         31.17592       98.10368       32.54725
O         30.73042       99.45427       34.24574
H         30.75699      101.90555       33.95386
H         32.78834      101.00628       32.07018
H         30.87747       99.89852       30.91789
H         29.71279      100.75417       31.98428
N         31.43919      103.80717       31.07978
C         31.02175      104.64096       29.94946
C         32.04361      105.68094       29.54979
O         32.70857      106.18880       30.44223
C         29.71221      105.35647       30.34086
C         28.60749      104.35506       30.69344
C         27.26540      105.06378       30.87164
C         26.17309      104.06129       31.25732
N         24.86692      104.71391       31.31508
H         31.47303      104.24666       32.00946
H         30.84205      104.00777       29.07120
H         29.37268      105.99772       29.50664
H         29.88496      106.02928       31.21069
H         28.88173      103.81046       31.62381
H         28.50286      103.61878       29.87148
H         26.99505      105.55137       29.90863
H         27.34473      105.84486       31.65924
H         26.41634      103.61984       32.24988
H         26.13306      103.23962       30.50756
H         24.88563      105.50550       31.99805
H         24.60948      105.07203       30.36623
H         24.14984      104.01625       31.61779
N         32.18088      106.17634       28.27000
C         31.53370      105.76845       27.00504
C         30.00347      105.72659       27.03727
O         29.45468      104.68890       27.37536
C         32.09299      104.45035       26.42723
C         33.57504      104.48971       26.19197
O         34.08045      105.38512       25.53415
O         34.34944      103.49754       26.66135
H         32.84293      106.96308       28.17063
H         31.82103      106.53114       26.24829
H         31.60438      104.27713       25.44376
H         31.85615      103.58782       27.08074
N         29.20238      106.76574       26.67119
C         29.67881      108.04020       26.16145
C         28.56253      109.07832       26.07196
O         27.44640      108.80734       26.49226
H         28.18700      106.61347       26.76964
H         30.14242      107.87184       25.16612
H         30.44005      108.44903       26.85940
N         28.78385      110.33675       25.59764
C         30.04594      110.76039       25.00482
C         30.22018      110.15665       23.61534
O         29.26696      109.63151       23.05518
C         30.16134      112.30692       24.94979
C         29.14722      112.99703       24.06522
O         27.83105      112.94760       24.34609
O         29.52426      113.65233       23.10725
H         28.01209      111.01124       25.68753
H         30.86842      110.41687       25.66838
H         31.17942      112.56652       24.58563
H         30.06657      112.71600       25.97911
N         31.42679      110.22271       22.99102
C         31.65120      109.79484       21.61977
C         31.36726      108.32695       21.35848
O         30.56621      108.03191       20.48292
H         32.22247      110.64281       23.49597
H         32.71593      109.98601       21.36064
H         31.02832      110.42173       20.94479
N         32.04810      107.35205       22.02312
C         31.95564      105.92930       21.67196
C         30.55638      105.37764       21.90543
O         30.05606      105.45941       23.01955
C         32.97351      105.08392       22.46451
C         34.42259      105.53100       22.22013
O         32.84897      103.73856       22.07770
H         32.70422      107.65254       22.75832
H         32.22312      105.81985       20.59677
H         32.72045      105.19147       23.53757
H         33.20409      103.18839       22.82374
H         34.59763      106.57447       22.54881
H         35.11349      104.88188       22.79723
H         34.67518      105.45102       21.14165
N         29.86761      104.79690       20.87825
C         28.48746      104.33312       21.01102
C         28.33679      103.04164       21.82506
O         27.20181      102.67208       22.08564
C         27.78976      104.18542       19.61624
C         28.33056      102.98486       18.79044
C         27.87544      105.51325       18.83218
C         27.56581      102.75695       17.48215
H         30.32078      104.76797       19.95382
H         27.92891      105.13585       21.54380
H         26.71160      103.99150       19.81401
H         28.21286      102.05611       19.38795
H         29.40908      103.11218       18.56114
H         27.25889      105.47884       17.91258
H         27.49053      106.35008       19.45159
H         28.91829      105.74710       18.53300
H         27.94656      101.84144       16.98241
H         26.48177      102.62127       17.68562
H         27.70480      103.60254       16.77877
N         29.40769      102.27957       22.21317
C         29.26634      101.00199       22.91918
C         29.97900      101.04918       24.25693
O         31.15795      101.36975       24.29533
C         29.77598       99.81614       22.05247
C         31.27551       99.84033       21.71761
O         29.03699       99.78029       20.85873
H         30.35762      102.58816       21.97098
H         28.19415      100.77587       23.10847
H         29.57509       98.88423       22.63588
H         29.06637       98.84426       20.52686
H         31.54496      100.75070       21.14552
H         31.89608       99.77718       22.63356
H         31.52959       98.95122       21.10212
N         29.32300      100.71352       25.40873
C         30.00374      100.67537       26.70190
C         31.11342       99.62138       26.71220
O         31.30139       98.92061       25.72484
C         28.99641      100.48794       27.87587
C         28.34384       99.10507       27.92504
O         27.98561      101.45893       27.80022
H         28.32101      100.47907       25.35908
H         30.47403      101.66930       26.86149
H         29.52854      100.60839       28.84570
H         28.41689      102.33456       27.97236
H         29.11292       98.31405       28.04866
H         27.66263       99.05581       28.80262
H         27.75285       98.90485       27.00909
N         31.89911       99.47126       27.81051
C         33.03379       98.56999       27.90178
C         34.28174       99.38882       28.20531
O         35.20891       99.35763       27.40987
C         32.74068       97.49299       28.97242
C         33.89587       96.50184       29.22988
C         34.39972       95.73338       27.99412
C         33.35061       94.79762       27.37385
N         33.89722       94.12492       26.19424
H         31.68869      100.03360       28.63597
H         33.18488       98.04570       26.93329
H         31.83317       96.93086       28.66321
H         32.50006       97.98580       29.93922
H         33.57033       95.77169       30.00354
H         34.75301       97.07009       29.64986
H         35.26876       95.11520       28.30863
H         34.76488       96.45156       27.23200
H         32.44891       95.37014       27.06940
H         33.04720       94.03574       28.12650
H         34.75883       93.58784       26.44598
H         33.18478       93.46232       25.81162
H         34.12817       94.83196       25.45829
N         34.36971      100.14556       29.34111
C         35.54493      100.93137       29.70724
C         36.12603      100.35731       30.97931
O         35.44364      100.33194       31.99428
C         35.18162      102.43085       29.88346
C         36.35068      103.29686       30.40666
C         37.58606      103.21391       29.54912
O         38.57881      102.64807       29.97771
O         37.63923      103.79256       28.33425
H         33.57796      100.13966       29.99838
H         36.31330      100.87399       28.90687
H         34.35301      102.52976       30.61392
H         34.82362      102.82980       28.91866
H         36.60124      102.93920       31.42825
H         36.03707      104.35903       30.50361
N         37.40378       99.88508       30.98687
C         38.04623       99.33275       32.15956
H         38.94689       99.93606       32.39872
H         37.37900       99.32910       33.04638
H         38.35681       98.28924       31.94578
H         37.96092       99.92131       30.12020
Ca        36.17316      105.37822       27.68628
O         38.70418      106.67237       29.06811
H         39.00088      105.85386       29.53931
H         39.47191      106.91851       28.49380
O         37.48725      106.26120       24.03752
H         37.61512      105.65572       23.26447
H         36.90156      106.98167       23.69412
O         37.09206      103.21336       24.81822
H         37.72187      102.72367       25.40468
H         37.38605      102.99224       23.89877
O         39.57823      105.06034       26.18635
H         39.86515      104.66415       25.32554
H         40.37419      105.55195       26.51037

Ca 1.0



