%chk=apoCaM-CA-Ng.loop3.water2.frame962.chk
%nprocshared=20
%mem=10GB
%nosave
#b3lyp/svp scf=(tight,noincore,xqc) Test 
#IOP(5/87=12) Density=Current Pop=(MK,readradii) iop(6/33=2) iop(6/42=6)

apoCaM-CA-Ng.loop3.water2.frame962 

   0  1 
C         71.02945      111.16617       49.98607
C         71.07417      112.03339       51.21281
O         70.02990      112.44102       51.69050
H         72.04804      110.84789       49.67432
H         70.44742      110.24725       50.21453
H         70.55179      111.70753       49.14628
N         72.26561      112.31565       51.79839
C         72.42344      112.98623       53.08737
C         71.91288      114.42080       53.08549
O         72.32352      115.20893       52.24561
C         73.90456      112.87438       53.48723
C         74.22954      113.15613       54.92129
O         75.37119      112.95442       55.29877
O         73.32000      113.57921       55.81778
H         73.11218      111.94744       51.33549
H         71.85820      112.41929       53.84299
H         74.52400      113.49861       52.81188
H         74.21214      111.81672       53.34438
N         71.03066      114.82527       54.04947
C         70.50192      116.18438       54.17680
C         71.63094      117.18444       54.31636
O         71.67388      118.14508       53.56072
C         69.58813      116.31882       55.42772
C         68.31905      115.45328       55.34921
C         67.38576      115.59534       56.56910
C         68.02950      115.13851       57.88978
N         67.05871      115.14656       58.98463
H         70.75217      114.13222       54.75839
H         69.89781      116.44084       53.27745
H         69.26572      117.37961       55.52675
H         70.17561      116.04808       56.33009
H         68.59531      114.38953       55.24575
H         67.74582      115.74847       54.44392
H         66.49655      114.95571       56.37650
H         67.04072      116.64743       56.66772
H         68.87658      115.80563       58.15497
H         68.41860      114.10884       57.76900
H         66.69088      116.11329       59.13667
H         66.26749      114.49678       58.76956
H         67.52851      114.81941       59.86020
N         72.58068      117.01082       55.27569
C         73.65514      117.95791       55.54147
C         75.02155      117.39152       55.17137
O         76.01830      118.04093       55.45732
C         73.54402      118.42633       57.01070
C         73.64038      117.32256       58.02838
O         72.58203      117.03003       58.80808
O         74.68124      116.71060       58.17977
H         72.53841      116.16016       55.85721
H         73.54113      118.87354       54.92065
H         72.54978      118.91064       57.12559
H         74.31836      119.19125       57.23292
N         75.14850      116.23674       54.45047
C         76.42841      115.72623       53.98297
C         77.32765      115.18952       55.07544
O         78.43868      114.80271       54.74127
H         74.30652      115.73837       54.13742
H         76.95429      116.53433       53.42889
H         76.25882      114.89710       53.26663
N         76.94557      115.13949       56.38778
C         77.84289      114.72886       57.45851
C         77.19600      113.59554       58.31269
O         76.15711      114.08465       59.12113
C         78.19685      116.00563       58.25533
C         79.39142      115.92293       59.16966
N         79.77641      117.02815       59.84746
O         80.03947      114.89374       59.27768
H         76.01223      115.46669       56.65028
H         78.78256      114.33910       57.01063
H         77.30621      116.35496       58.81970
H         78.45363      116.79715       57.51626
H         79.25071      117.91016       59.75178
H         80.60594      117.00833       60.45777
N         78.20602      112.88941       59.10875
C         77.70109      111.92308       60.09825
C         76.80135      110.84686       59.52336
O         77.15769      110.23304       58.52745
H         78.84216      112.38707       58.44629
H         77.20442      112.45603       60.93717
H         78.58769      111.41225       60.53297
N         75.64990      110.50417       60.17358
C         74.77070      109.41851       59.73611
C         74.00607      109.80040       58.47379
O         74.20131      110.89506       57.96797
C         73.77322      109.03997       60.86211
C         74.44915      108.62828       62.15232
C         74.14980      109.30249       63.34857
C         75.36087      107.55667       62.18304
C         74.74777      108.91298       64.55075
C         75.96462      107.17495       63.38575
C         75.65881      107.84775       64.57292
O         76.24082      107.46034       65.72600
H         75.43189      110.98841       61.05787
H         75.38685      108.51796       59.52386
H         73.15366      108.17751       60.54285
H         73.08590      109.89295       61.04356
H         73.44436      110.12387       63.35510
H         75.60694      107.01326       61.28021
H         74.49915      109.43786       65.46449
H         76.66724      106.35081       63.39591
H         76.04897      107.89321       66.57029
N         73.10685      108.92978       57.91863
C         72.30043      109.17660       56.72172
C         71.32734      110.33946       56.92743
O         71.76293      111.44490       57.21187
C         73.18705      109.38068       55.45740
C         72.34125      109.53633       54.16324
C         74.21138      108.24384       55.29688
C         71.48322      108.33598       53.76048
H         72.98407      108.00741       58.36099
H         71.70463      108.25661       56.54574
H         73.76500      110.32162       55.57749
H         73.02169      109.76724       53.31585
H         71.64886      110.38181       54.29170
H         74.88839      108.19859       56.17531
H         73.70825      107.26008       55.19943
H         74.84125      108.42148       54.39926
H         72.10782      107.44324       53.56159
H         70.72773      108.10091       54.53533
H         70.93582      108.58804       52.82704
N         69.98525      110.16304       56.73265
C         69.00933      111.24834       56.84502
C         67.85777      110.93991       57.78846
O         67.03998      111.82839       57.99713
C         68.38577      111.50521       55.46856
O         69.37181      111.86160       54.55047
H         69.65190      109.23852       56.42482
H         69.50689      112.17686       57.19569
H         67.63704      112.32658       55.54653
H         67.87242      110.58104       55.11766
H         68.87288      112.11498       53.73409
N         67.64774      109.69907       58.30980
C         66.41405      109.36934       59.01433
C         66.29602      110.08269       60.34802
O         67.31199      110.53321       60.85910
C         66.34174      107.86432       59.23616
H         68.31497      108.94156       58.11065
H         65.57703      109.67985       58.35172
H         65.43386      107.61379       59.80181
H         66.32965      107.34349       58.25352
H         67.21522      107.51279       59.82314
N         65.10003      110.28426       60.98384
C         63.76981      109.94449       60.46926
C         62.91992      109.27644       61.54572
O         62.94416      109.76184       62.66863
C         63.08340      111.25231       60.06830
H         65.13110      110.82357       61.86427
H         63.80658      109.33065       59.55387
H         62.06890      111.04762       59.66396
H         62.99339      111.93809       60.93856
H         63.67871      111.75983       59.27895
N         62.04631      108.24861       61.31190
C         61.79553      107.60286       60.02639
C         62.96959      106.73663       59.63574
O         63.46337      106.87268       58.52506
C         60.50892      106.74492       60.10413
C         60.10073      106.18392       58.72765
C         58.80995      105.40958       58.77029
O         58.13245      105.24096       59.92338
O         58.36433      104.92986       57.74020
H         61.46511      107.94851       62.11173
H         61.59568      108.38384       59.25831
H         59.68130      107.39751       60.46119
H         60.63796      105.91433       60.83300
H         60.89755      105.51452       58.33933
H         59.96966      107.03006       58.01789
N         63.47009      105.82451       60.51900
C         64.60890      104.97277       60.24220
H         65.42139      105.20644       60.96356
H         64.31525      103.91063       60.36758
H         65.00347      105.11302       59.21445
H         63.04226      105.74505       61.45392
Ca        74.30732      113.79476       57.82816
O         73.08514      112.60139       60.62569
H         73.81389      112.94009       61.20360
H         72.40609      112.25648       61.25846
O         70.96125      114.02659       59.04791
H         70.76813      114.80099       59.63386
H         70.47053      113.27380       59.46420

Ca 1.0



