%chk=apoCaM-CA-Ng.loop4.water4.frame702.chk
%nprocshared=20
%mem=10GB
%nosave
#b3lyp/svp scf=(tight,noincore,xqc) Test 
#IOP(5/87=12) Density=Current Pop=(MK,readradii) iop(6/33=2) iop(6/42=6)

apoCaM-CA-Ng.loop4.water4.frame702 

   -3  1 
C         89.46518       85.20629      -12.24131
C         89.67218       83.72739      -12.37355
O         89.21273       83.14134      -13.34293
H         88.91093       85.41999      -11.30313
H         90.45003       85.71818      -12.20677
H         88.88406       85.60432      -13.09978
N         90.37975       83.05939      -11.41965
C         90.64461       81.62415      -11.43455
C         91.42392       81.23402      -12.67738
O         91.03785       80.32155      -13.39560
C         89.33801       80.82747      -11.23947
C         88.70666       81.18351       -9.92146
O         87.51030       81.79662       -9.88754
O         89.28436       80.93223       -8.87573
H         90.76928       83.60147      -10.63275
H         91.30863       81.38989      -10.57214
H         89.53917       79.73432      -11.24972
H         88.63277       81.04926      -12.06693
N         92.56058       81.91915      -12.97990
C         93.42098       81.60132      -14.12026
C         94.10989       80.24604      -13.90046
O         94.13743       79.79555      -12.76305
C         94.45656       82.75819      -14.35817
C         95.39552       82.98741      -13.13708
C         93.70617       84.03968      -14.77356
C         96.48359       84.03298      -13.38714
H         92.79152       82.71623      -12.37329
H         92.76792       81.53349      -15.01528
H         95.10618       82.50159      -15.20911
H         95.90825       82.03234      -12.89578
H         94.83235       83.30892      -12.23887
H         93.08003       83.83470      -15.66881
H         93.04883       84.41215      -13.96107
H         94.41032       84.84578      -15.05990
H         97.13587       84.10387      -12.49107
H         97.10608       83.74324      -14.25921
H         96.04714       85.03787      -13.55814
N         94.70219       79.51065      -14.89569
C         94.68047       79.83246      -16.32163
C         93.27798       79.72942      -16.91241
O         93.08330       80.21040      -18.02091
C         95.65468       78.90805      -17.08656
C         95.79205       79.27865      -18.53856
O         96.23624       80.50238      -18.88491
O         95.50886       78.47100      -19.40872
H         95.18892       78.64584      -14.60884
H         95.05486       80.85805      -16.45665
H         95.31441       77.85278      -16.99238
H         96.66354       78.98909      -16.62635
N         92.24803       79.12622      -16.24505
C         90.89574       79.09136      -16.77376
C         90.77573       78.31220      -18.06375
O         91.73011       77.68720      -18.50683
H         92.40317       78.70455      -15.31885
H         90.56700       80.13878      -16.94747
H         90.20798       78.63302      -16.03055
N         89.59883       78.36079      -18.74555
C         89.39179       77.73158      -20.04422
C         89.68952       78.68320      -21.19563
O         89.52039       78.27199      -22.33571
C         87.97952       77.09785      -20.13710
C         86.80177       78.03760      -20.01505
O         85.67159       77.58718      -20.10883
O         86.95936       79.35457      -19.79312
H         88.85764       78.96453      -18.36331
H         90.10848       76.88929      -20.16985
H         87.88503       76.33022      -19.33952
H         87.89534       76.57768      -21.11680
N         90.20359       79.93658      -20.99878
C         90.55636       80.80696      -22.11003
C         89.35300       81.33193      -22.86337
O         89.54802       81.93768      -23.90719
H         90.41350       80.27219      -20.04833
H         91.22292       80.24362      -22.79943
H         91.12423       81.68768      -21.73902
N         88.08461       81.19179      -22.37399
C         86.87776       81.66918      -23.03785
C         86.81428       83.18756      -23.17185
O         85.83763       83.66315      -23.73447
C         86.64398       80.91478      -24.36595
C         86.42051       79.41261      -24.08974
C         86.10514       78.60102      -25.32002
N         85.83562       77.28049      -25.19553
O         86.08172       79.12152      -26.42585
H         87.94796       80.72761      -21.47157
H         86.00471       81.42057      -22.39182
H         87.49005       81.06560      -25.06853
H         85.72077       81.30818      -24.84506
H         85.56181       79.30562      -23.39055
H         87.32015       78.97799      -23.60766
H         85.84262       76.82843      -24.26871
H         85.61098       76.70903      -26.02324
N         87.73379       84.01517      -22.58413
C         87.57540       85.46848      -22.52914
C         87.23585       85.92557      -21.11179
O         86.88721       87.08707      -20.94942
C         88.81752       86.21054      -23.09121
C         90.09150       85.94503      -22.26958
C         89.05320       85.84651      -24.56286
H         88.52486       83.60962      -22.07078
H         86.69961       85.76998      -23.14513
H         88.61076       87.30342      -23.04708
H         90.93400       86.54595      -22.67272
H         89.94229       86.24047      -21.20961
H         90.38519       84.87567      -22.30632
H         89.27879       84.76460      -24.67355
H         88.15225       86.08843      -25.16593
H         89.90703       86.42995      -24.96892
N         87.27800       85.06754      -20.04762
C         86.82012       85.39822      -18.70211
C         85.66269       84.44328      -18.37677
O         85.37790       83.58856      -19.20854
C         88.05499       85.34314      -17.76942
C         87.86902       85.92353      -16.38607
N         88.50775       87.06596      -16.03058
O         87.17007       85.35084      -15.56723
H         87.61692       84.10448      -20.17629
H         86.42471       86.43767      -18.68395
H         88.83566       85.95765      -18.27183
H         88.45483       84.30892      -17.70053
H         89.11402       87.56860      -16.69607
H         88.39303       87.45875      -15.08456
N         84.87627       84.56896      -17.26760
C         83.66336       83.75347      -17.10589
C         82.76531       84.24423      -15.98111
O         83.14935       85.15239      -15.25520
C         83.95921       82.23426      -16.95311
C         84.31684       81.77700      -15.55604
C         85.47564       82.21719      -14.89599
C         83.46110       80.86934      -14.90420
C         85.76976       81.74882      -13.60725
C         83.75725       80.40395      -13.62678
C         84.91044       80.83453      -12.97509
O         85.17522       80.35643      -11.74516
H         85.07208       85.33734      -16.61496
H         83.08351       83.88707      -18.04694
H         84.73399       81.88719      -17.66383
H         83.02946       81.70573      -17.25434
H         86.14983       82.91256      -15.37607
H         82.55942       80.51261      -15.38564
H         86.66381       82.09166      -13.10414
H         83.08884       79.70294      -13.14260
H         85.96815       80.60371      -11.25915
N         81.53500       83.68052      -15.78567
C         80.62874       84.12158      -14.73740
C         80.30383       82.96105      -13.79345
O         79.42035       82.18203      -14.12460
C         79.35390       84.71723      -15.36909
C         78.40997       85.31580      -14.31412
C         77.17529       85.87373      -14.95801
O         76.34880       85.06373      -15.64735
O         76.90627       87.05919      -14.84876
H         81.22085       82.92335      -16.41151
H         81.08700       84.95342      -14.18902
H         78.82657       83.93106      -15.95361
H         79.65076       85.52662      -16.07305
H         78.94355       86.12207      -13.76365
H         78.09877       84.53918      -13.58423
N         80.96555       82.72475      -12.61750
C         82.15229       83.45068      -12.17164
C         81.89380       84.91822      -11.89650
O         80.74582       85.32214      -11.76497
C         82.78504       82.77780      -10.92913
C         81.93680       82.91441       -9.64644
C         82.55432       82.22703       -8.45649
O         83.60473       81.61114       -8.55180
O         81.93398       82.29232       -7.26328
H         80.65911       81.90772      -12.06583
H         82.88658       83.37241      -13.00357
H         83.78127       83.23056      -10.74249
H         82.93610       81.70058      -11.15039
H         80.92699       82.48307       -9.80710
H         81.82564       83.99016       -9.39297
N         82.94489       85.78204      -11.84880
C         82.79872       87.21038      -11.66594
H         81.73948       87.51450      -11.53212
H         83.37670       87.52826      -10.77468
H         83.19857       87.73226      -12.56143
H         83.89940       85.41692      -11.98844
Ca        86.52873       82.30051       -7.92044
O         86.48263       79.02554       -8.24257
H         86.36305       78.99599       -9.22497
H         85.56477       78.95107       -7.87873
O         85.40205       83.96570       -5.57298
H         85.47958       84.85067       -6.00998
H         86.07768       83.98685       -4.84957
O         87.93907       81.46678       -5.41234
H         88.17225       82.41518       -5.24863
H         88.16988       81.00359       -4.56866
O         85.19598       84.85048       -9.07435
H         85.85553       85.37172       -8.55177
H         85.64951       84.67279       -9.93647

Ca 1.0



