%chk=apoCaM-CA-Ng.loop1.water5.frame615.chk
%nprocshared=20
%mem=10GB
%nosave
#b3lyp/svp scf=(tight,noincore,xqc) Test 
#IOP(5/87=12) Density=Current Pop=(MK,readradii) iop(6/33=2) iop(6/42=6)

apoCaM-CA-Ng.loop1.water5.frame615 

   0  1 
C         59.28262      110.09216      104.77716
C         59.04005      111.44425      105.38986
O         59.38582      112.44140      104.77287
H         58.90995      109.27465      105.43057
H         58.75946      110.02431      103.80039
H         60.37098      109.94157      104.61717
N         58.44889      111.55134      106.61390
C         58.17422      112.82851      107.27185
C         59.41872      113.70411      107.40206
O         60.42956      113.27577      107.92655
C         57.39989      112.65673      108.60615
C         57.69386      111.44142      109.46906
O         58.86922      111.18645      110.08181
O         56.79174      110.63424      109.63402
H         58.17557      110.67828      107.08673
H         57.47230      113.39633      106.62105
H         56.33337      112.53391      108.30396
H         57.43964      113.59788      109.19544
N         59.39642      114.95787      106.86216
C         60.54090      115.86385      106.76374
C         61.08539      116.42822      108.07430
O         62.07022      117.15203      107.99406
C         60.16452      117.05364      105.83877
C         59.05561      117.97501      106.39011
C         58.71855      119.07448      105.37424
C         57.57148      119.96322      105.87223
N         57.26408      121.01154      104.89943
H         58.52346      115.24576      106.39846
H         61.36163      115.30263      106.26404
H         59.80542      116.63288      104.87695
H         61.07034      117.66756      105.63836
H         59.38427      118.44167      107.34388
H         58.13320      117.39146      106.58769
H         58.41366      118.60633      104.41236
H         59.61949      119.69759      105.19367
H         57.85300      120.43214      106.84089
H         56.66448      119.33825      106.03410
H         56.47118      121.59087      105.25845
H         58.09800      121.62744      104.76053
H         56.98424      120.58579      103.98575
N         60.49986      116.22947      109.29244
C         60.96090      116.95958      110.48122
C         62.41698      116.64270      110.85488
O         62.93405      115.64201      110.38191
C         59.99434      116.73728      111.67813
C         59.88430      115.31646      112.16334
O         59.05061      115.02706      113.18006
O         60.53582      114.42295      111.65481
H         59.65926      115.63738      109.35678
H         60.90956      118.03292      110.20007
H         58.98019      117.07039      111.37121
H         60.30037      117.35181      112.54711
N         63.17620      117.43480      111.67844
C         62.73980      118.69005      112.27395
C         63.57847      119.89091      111.87942
O         63.19632      120.97941      112.28744
H         64.13652      117.12433      111.89509
H         62.76167      118.59376      113.38002
H         61.70637      118.94158      111.98542
N         64.71376      119.81357      111.11621
C         65.47319      121.01388      110.76041
C         66.09423      120.94207      109.37576
O         66.23274      119.86570      108.81133
C         66.53474      121.33088      111.83675
C         67.52444      120.21264      112.04019
O         67.62151      119.61412      113.24296
O         68.25434      119.85360      111.12990
H         65.07449      118.89508      110.82235
H         64.76859      121.87394      110.71557
H         66.01419      121.51950      112.80008
H         67.08737      122.25733      111.56735
N         66.50403      122.09980      108.77913
C         67.21358      122.17872      107.51353
C         66.48139      121.66297      106.28819
O         67.09784      121.70862      105.23288
H         66.35279      122.98882      109.28015
H         68.16716      121.61814      107.61554
H         67.47343      123.24249      107.31940
N         65.21816      121.13709      106.31828
C         64.59529      120.53721      105.13604
C         64.42097      119.04441      105.33393
O         64.60942      118.55177      106.43845
C         63.26520      121.23597      104.76658
C         62.18923      121.10065      105.84992
O         63.49541      122.59957      104.52669
H         64.69784      121.10802      107.20366
H         65.27384      120.64048      104.26177
H         62.84705      120.76526      103.84563
H         63.92069      122.66583      103.63171
H         62.50570      121.58467      106.79601
H         61.25540      121.59481      105.50778
H         61.96443      120.03162      106.04781
N         64.13231      118.24525      104.26346
C         64.06564      116.78560      104.37070
C         65.42452      116.22918      104.82221
O         65.47568      115.09071      105.26939
C         63.55369      116.13728      103.03266
C         62.16191      116.72641      102.65771
C         63.46241      114.59934      103.14316
C         61.54397      116.18956      101.36604
H         64.00927      118.69512      103.34585
H         63.32437      116.55363      105.16711
H         64.27267      116.37983      102.21879
H         62.22878      117.82453      102.53016
H         61.45672      116.52179      103.47667
H         64.45175      114.14441      103.33715
H         62.75451      114.30572      103.94800
H         63.13226      114.14633      102.18794
H         60.58547      116.71981      101.17834
H         62.22297      116.36353      100.50613
H         61.30304      115.11087      101.44811
N         66.55685      116.99397      104.78202
C         67.85664      116.57290      105.28673
C         68.86267      116.56875      104.14879
O         68.54224      117.01936      103.05422
C         68.23596      117.52853      106.45554
C         69.56677      117.24355      107.15710
O         68.24791      118.85374      105.99399
H         66.51625      117.94189      104.38020
H         67.79912      115.53431      105.68152
H         67.42813      117.39984      107.21671
H         67.98213      119.41966      106.76221
H         70.42496      117.45184      106.48581
H         69.67356      117.92378      108.02932
H         69.60328      116.19647      107.52253
N         70.09587      116.02896      104.32872
C         71.11510      115.97649      103.29510
C         71.43718      114.52543      102.99151
O         71.32458      114.12051      101.84430
C         72.35677      116.79510      103.74214
C         73.43163      116.84662      102.64966
O         72.90664      116.26937      104.92321
H         70.32149      115.61217      105.24323
H         70.74860      116.45171      102.35667
H         72.00582      117.83698      103.93302
H         73.45031      116.98905      105.33838
H         73.81450      115.82962      102.42133
H         73.01490      117.29576      101.72319
H         74.28304      117.47495      102.98803
N         71.86239      113.69236      103.98347
C         72.31185      112.32887      103.76570
C         71.51485      111.37462      104.63836
O         71.44674      111.58109      105.84222
C         73.80820      112.30344      104.10330
C         74.48640      110.96173      103.81646
C         75.98719      111.09195      104.09894
C         76.73790      109.78743      103.82682
N         78.16325      109.95110      104.11250
H         71.93716      114.05403      104.94439
H         72.20812      112.03851      102.69709
H         73.95943      112.58190      105.17029
H         74.30095      113.07693      103.47124
H         74.33347      110.68902      102.74875
H         74.04490      110.16865      104.45828
H         76.13403      111.38085      105.16283
H         76.41222      111.89140      103.45136
H         76.60606      109.49633      102.76081
H         76.32308      108.97986      104.46950
H         78.30007      110.21323      105.11612
H         78.65787      109.04946      103.92718
H         78.57013      110.69438      103.49868
N         70.91213      110.27860      104.09404
C         70.15614      109.31690      104.88986
C         68.89695      109.94923      105.47867
O         68.78360      109.93439      106.69625
C         69.86474      108.02896      104.08007
C         69.18357      106.93899      104.93012
C         69.02018      105.63383      104.19321
O         69.41166      105.49859      103.04380
O         68.44212      104.59144      104.81932
H         71.04097      110.09739      103.08713
H         70.81163      108.98354      105.72792
H         70.84427      107.63295      103.73045
H         69.24107      108.22813      103.18721
H         68.17845      107.29056      105.24730
H         69.79455      106.74181      105.83719
N         67.89492      110.52408      104.74638
C         67.86108      110.68387      103.30641
H         67.77153      111.76360      103.06474
H         68.75955      110.30997      102.79455
H         66.97620      110.15268      102.89783
H         67.08155      110.90071      105.25811
Ca        60.90824      112.12967      110.23138
O         60.78497      109.43196      108.57099
H         61.15340      108.52377      108.70927
H         59.83234      109.28036      108.34911
O         63.54459      110.28280      110.08519
H         64.47530      110.61062      110.00377
H         63.61067      109.30611      109.93679
O         62.60556      112.40108      112.83023
H         62.67085      111.88875      113.67467
H         62.46900      113.33790      113.11963
O         63.40065      113.21975      108.82048
H         63.01810      113.98870      108.32818
H         64.15402      112.91550      108.25598
O         61.02646      109.54415      112.06057
H         61.41927      109.01120      112.79672
H         60.36619      108.93858      111.63892

Ca 1.0



