%chk=apoCaM-CA-Ng.loop4.water2.frame441.chk
%nprocshared=20
%mem=10GB
%nosave
#b3lyp/svp scf=(tight,noincore,xqc) Test 
#IOP(5/87=12) Density=Current Pop=(MK,readradii) iop(6/33=2) iop(6/42=6)

apoCaM-CA-Ng.loop4.water2.frame441 

   -3  1 
C         82.98623       67.97968       68.73182
C         81.84108       67.06872       69.05161
O         82.03883       65.86664       69.04847
H         83.90217       67.38803       68.50837
H         82.73787       68.59522       67.84290
H         83.19399       68.63877       69.59911
N         80.61088       67.57315       69.36091
C         79.44719       66.74848       69.68139
C         79.70776       65.86243       70.88127
O         79.64955       64.66153       70.74803
C         78.85686       66.02924       68.42959
C         79.75936       65.30696       67.43802
O         80.48810       64.19427       67.70109
O         79.78847       65.73236       66.29347
H         80.49801       68.59769       69.39579
H         78.61986       67.41720       70.01269
H         78.37276       66.84375       67.84226
H         78.03353       65.35455       68.74920
N         79.95325       66.42566       72.10126
C         80.26959       65.74421       73.36546
C         79.15555       64.81354       73.86696
O         78.49856       65.16956       74.83539
C         81.66575       65.06093       73.32282
C         82.09548       64.48273       74.70022
C         82.73614       66.03548       72.79576
C         82.25017       65.51600       75.82499
H         79.93486       67.45710       72.14328
H         80.34721       66.56642       74.11041
H         81.62585       64.21168       72.60905
H         83.07275       63.97045       74.57308
H         81.36165       63.71759       75.02978
H         83.72982       65.54991       72.79745
H         82.51213       66.33778       71.75327
H         82.79128       66.95519       73.41273
H         81.28806       66.01673       76.05277
H         82.58932       65.00401       76.74947
H         83.00900       66.28237       75.56803
N         78.89219       63.60834       73.28073
C         77.79480       62.73443       73.67771
C         78.08695       61.97756       74.98308
O         77.32231       62.19894       75.91156
C         77.35686       61.83720       72.49792
C         76.78717       62.61589       71.33429
O         76.69759       63.96098       71.36296
O         76.38526       62.01474       70.35127
H         79.46346       63.29991       72.49275
H         76.89576       63.36704       73.86846
H         76.56374       61.14197       72.84908
H         78.21114       61.26302       72.10605
N         79.12942       61.11184       75.21746
C         80.18656       60.73127       74.29441
C         79.75400       59.66745       73.29634
O         78.61602       59.22557       73.37607
H         79.22125       60.74232       76.17696
H         81.01878       60.27565       74.87219
H         80.57028       61.65599       73.83825
N         80.57170       59.17755       72.30832
C         81.97819       59.53318       72.07895
C         82.14527       61.06420       72.02605
O         81.05428       61.70742       71.41472
C         82.51952       58.78088       70.82958
C         81.86088       59.15652       69.53228
O         82.02838       60.38705       69.01891
O         81.22952       58.32445       68.90126
H         80.14694       58.49105       71.66413
H         82.56832       59.17616       72.94904
H         82.37685       57.69245       71.00844
H         83.60433       58.93716       70.69469
N         83.45955       61.65694       71.72958
C         84.62582       61.05611       72.42057
C         84.54517       60.97428       73.93169
O         83.53934       61.34219       74.52060
H         83.40722       62.66021       72.01861
H         85.52082       61.65933       72.17041
H         84.82453       60.04088       72.03868
N         85.61906       60.48185       74.62125
C         85.65046       60.32114       76.07286
C         86.59153       61.31427       76.74778
O         86.56002       61.38052       77.96892
C         85.87953       58.83682       76.45994
C         87.15790       58.16587       75.92113
C         88.42327       58.71421       76.51384
N         88.66640       58.60559       77.83971
O         89.25413       59.23140       75.78595
H         86.45930       60.22042       74.08402
H         84.65229       60.58353       76.48819
H         85.02435       58.26228       76.04139
H         85.83229       58.72545       77.56512
H         87.18278       58.24156       74.81442
H         87.12220       57.08262       76.16780
H         87.98880       58.15020       78.46724
H         89.54518       58.95877       78.23928
N         87.35702       62.19662       76.03226
C         87.97729       63.37966       76.63523
C         89.49469       63.44190       76.50434
O         90.05918       64.41321       76.99099
C         87.32093       64.66254       76.03803
C         85.81111       64.68727       76.32240
C         87.56719       64.82411       74.52504
H         87.40851       62.10565       75.01018
H         87.78001       63.40044       77.72998
H         87.76466       65.54696       76.54704
H         85.36853       65.63379       75.94821
H         85.29537       63.83839       75.82453
H         85.62395       64.62571       77.41556
H         87.13041       65.78256       74.17307
H         88.65458       64.84316       74.30324
H         87.09557       64.00924       73.93798
N         90.23162       62.46135       75.90995
C         91.69128       62.50821       75.82511
C         92.19815       62.40890       74.39545
O         93.41007       62.39870       74.22810
C         92.29367       61.35945       76.66133
C         91.96696       61.48832       78.12815
N         92.37949       62.56279       78.84117
O         91.33996       60.60272       78.68556
H         89.75453       61.63195       75.53433
H         92.08904       63.46556       76.22553
H         93.40209       61.36485       76.57208
H         91.92222       60.38690       76.26796
H         92.92508       63.31633       78.39923
H         92.15940       62.63783       79.84538
N         91.36573       62.35155       73.31286
C         91.88620       62.18154       71.95496
C         90.83222       62.41505       70.89234
O         89.66274       62.21034       71.16614
C         92.51744       60.76944       71.79608
C         91.58048       59.63536       72.19866
C         91.85824       58.87400       73.34974
C         90.43275       59.31712       71.44828
C         91.00571       57.83578       73.74176
C         89.58289       58.28008       71.83982
C         89.86238       57.53779       72.98802
O         89.02743       56.54495       73.35588
H         90.35041       62.43981       73.45444
H         92.65614       62.96688       71.78456
H         93.41429       60.72977       72.44676
H         92.88614       60.61181       70.75983
H         92.73037       59.08840       73.95412
H         90.18273       59.85811       70.55580
H         91.23155       57.26739       74.63501
H         88.70419       58.05488       71.24754
H         89.17776       56.01221       74.14960
N         91.22177       62.77406       69.62624
C         90.36063       62.94584       68.45196
C         89.48612       64.19961       68.48870
O         89.62793       65.01463       67.58634
C         89.56709       61.66132       68.13592
C         90.52847       60.49841       67.81198
C         89.81901       59.19911       67.54792
O         88.47624       59.10842       67.61648
O         90.47268       58.20505       67.27542
H         92.23363       62.88365       69.45845
H         91.03167       63.10274       67.57466
H         88.92755       61.83551       67.24237
H         88.89981       61.39877       68.98203
H         91.23583       60.33926       68.65091
H         91.12734       60.76390       66.91358
N         88.55187       64.43026       69.45401
C         87.65070       65.57948       69.43674
C         88.37800       66.91338       69.49837
O         87.74381       67.92330       69.22389
C         86.64794       65.52901       70.61818
C         85.85491       64.21904       70.76987
C         85.01962       63.88860       69.57352
O         85.53873       63.62658       68.50153
O         83.68641       63.83187       69.69300
H         88.43679       63.75067       70.19611
H         87.09669       65.54302       68.47408
H         85.92627       66.37066       70.51995
H         87.21324       65.67483       71.56539
H         85.19894       64.32783       71.65461
H         86.51759       63.36130       70.98644
N         89.68392       67.00758       69.88231
C         90.40324       68.26305       69.94852
H         91.30353       68.20070       69.30292
H         89.79025       69.12401       69.60801
H         90.72031       68.44986       70.99551
H         90.20048       66.16356       70.16689
Ca        81.10412       62.94416       69.49627
O         78.98048       60.97162       68.35943
H         78.84312       60.05393       68.70420
H         78.73046       61.55873       69.11594
O         82.77470       63.02159       66.49773
H         83.69528       62.78845       66.77454
H         82.87790       63.84168       65.95240

Ca 1.0



