%chk=apoCaM-CA-Ng.loop2.water4.frame134.chk
%nprocshared=20
%mem=10GB
%nosave
#b3lyp/svp scf=(tight,noincore,xqc) Test 
#IOP(5/87=12) Density=Current Pop=(MK,readradii) iop(6/33=2) iop(6/42=6)

apoCaM-CA-Ng.loop2.water4.frame134 

   -2  1 
C         34.26251       63.07262      -10.97024
C         33.69407       63.57104      -12.26773
O         34.38381       63.50625      -13.27469
H         35.17917       63.64550      -10.71853
H         33.53555       63.18397      -10.13790
H         34.52002       61.99678      -11.06762
N         32.42911       64.07514      -12.31832
C         31.79061       64.54695      -13.54217
C         31.39596       66.02653      -13.43868
O         30.75138       66.51351      -14.35135
C         30.56028       63.64630      -13.79475
C         29.94312       63.86101      -15.14903
O         30.59765       63.65838      -16.15983
O         28.65941       64.25251      -15.25489
H         31.87289       64.10235      -11.44873
H         32.47867       64.43426      -14.40871
H         29.80514       63.81586      -12.99525
H         30.87460       62.58047      -13.74850
N         31.74043       66.78931      -12.35475
C         31.34432       68.17287      -12.08473
C         31.90580       69.21588      -13.04668
O         32.79255       69.95007      -12.63305
C         29.82831       68.30558      -11.91726
H         32.30835       66.35782      -11.61235
H         31.77806       68.41769      -11.08995
H         29.28967       68.07072      -12.85711
H         29.47836       67.60813      -11.12686
H         29.57217       69.34207      -11.60892
N         31.39717       69.40927      -14.29938
C         31.83576       70.48482      -15.18767
C         32.48085       69.94727      -16.45992
O         32.90028       70.74943      -17.28314
C         30.62727       71.38429      -15.52030
C         30.01718       71.97083      -14.27495
O         30.74942       72.76663      -13.47192
O         28.85512       71.73063      -13.98765
H         30.62451       68.81976      -14.63224
H         32.60726       71.11647      -14.69429
H         29.86108       70.78707      -16.06364
H         30.94414       72.22282      -16.17706
N         32.63027       68.60920      -16.67981
C         33.29697       68.04747      -17.84128
C         34.75887       68.42910      -17.88258
O         35.22487       68.90553      -18.90787
H         32.27599       67.93233      -15.99179
H         32.77268       68.34762      -18.77561
H         33.24803       66.93992      -17.76430
N         35.54094       68.25621      -16.78003
C         36.96452       68.57722      -16.74712
C         37.77135       67.50553      -17.45973
O         37.71431       66.34471      -17.07847
C         37.45080       68.72235      -15.29192
C         36.86159       69.95485      -14.64909
N         37.18220       71.18759      -15.11375
O         36.10480       69.84371      -13.69711
H         35.08824       67.92280      -15.91450
H         37.13260       69.55808      -17.24390
H         38.55615       68.83512      -15.26350
H         37.18179       67.80678      -14.72032
H         37.83599       71.30319      -15.90235
H         36.79351       72.03483      -14.67684
N         38.56203       67.84886      -18.51164
C         39.37091       66.91778      -19.27893
C         40.53124       66.32519      -18.50308
O         41.27869       67.07192      -17.88731
H         38.57731       68.83500      -18.81461
H         39.83139       67.49209      -20.11209
H         38.73199       66.13236      -19.73596
N         40.82380       64.99534      -18.62300
C         42.07599       64.41248      -18.12520
C         42.13644       64.29584      -16.61154
O         43.23095       64.14345      -16.08287
C         42.38275       63.04250      -18.78755
C         41.37010       61.93815      -18.43487
O         42.50107       63.18650      -20.18260
H         40.20289       64.42559      -19.21338
H         42.89488       65.09869      -18.44016
H         43.37321       62.69612      -18.41815
H         41.59138       63.27166      -20.56921
H         41.66196       60.99122      -18.93503
H         41.35743       61.75884      -17.34407
H         40.34290       62.20295      -18.75791
N         41.01005       64.31866      -15.85290
C         41.00721       64.27968      -14.39472
C         40.39147       65.55574      -13.87702
O         40.01893       66.41054      -14.67557
C         40.31400       62.98221      -13.85618
C         38.94128       62.63452      -14.48962
C         41.26538       61.78861      -14.03333
C         37.84947       63.67647      -14.26261
H         40.09703       64.39576      -16.32674
H         42.04154       64.29117      -13.98459
H         40.17395       63.06880      -12.75852
H         38.58014       61.68697      -14.03199
H         39.05414       62.45403      -15.57998
H         42.22524       61.98194      -13.50591
H         40.82295       60.87072      -13.59035
H         41.48189       61.60150      -15.10092
H         36.89832       63.30611      -14.69963
H         37.69826       63.84517      -13.17584
H         38.09177       64.63168      -14.76485
N         40.25779       65.76800      -12.54148
C         39.68460       66.98966      -12.01510
C         40.48034       67.42778      -10.78487
O         39.91045       67.74670       -9.75349
C         38.19429       66.71138      -11.77296
C         37.40082       67.91954      -11.42395
O         36.22678       67.78659      -11.11582
O         37.95194       69.14715      -11.41423
H         40.53288       65.03166      -11.87274
H         39.77510       67.79686      -12.77626
H         38.10442       65.95712      -10.96086
H         37.73943       66.28278      -12.69235
N         41.84179       67.38808      -10.84040
C         42.76638       67.71663       -9.75157
C         42.41114       67.01124       -8.44178
O         42.24959       65.80440       -8.46551
C         44.21886       67.37733      -10.20170
C         44.42857       65.92331      -10.60992
C         44.62290       64.91042       -9.65093
C         44.43265       65.56908      -11.97380
C         44.78978       63.57814      -10.04719
C         44.59335       64.23651      -12.36436
C         44.76858       63.24112      -11.40229
H         42.24813       67.07082      -11.73058
H         42.72046       68.81178       -9.59485
H         44.96726       67.66843       -9.43322
H         44.41931       68.02010      -11.08663
H         44.64864       65.14747       -8.59527
H         44.29103       66.32187      -12.73875
H         44.93392       62.80486       -9.30328
H         44.57835       63.97531      -13.41463
H         44.89179       62.20973      -11.70783
N         42.28592       67.68304       -7.24912
C         41.96436       67.06099       -5.96605
C         40.69469       66.22814       -5.95459
O         40.65797       65.23750       -5.23816
C         41.79534       68.25709       -5.02138
C         42.81416       69.22283       -5.57041
C         42.57760       69.09407       -7.07270
H         42.83395       66.43884       -5.65208
H         40.79675       68.72669       -5.17815
H         41.90790       68.00891       -3.94341
H         42.75825       70.26004       -5.17766
H         43.82256       68.80835       -5.33325
H         41.70288       69.68675       -7.41862
H         43.51129       69.41810       -7.58134
N         39.61008       66.57101       -6.71192
C         38.35754       65.81042       -6.70526
C         38.51830       64.35281       -7.14675
O         37.56165       63.60517       -6.99513
C         37.28194       66.49561       -7.59208
C         36.82116       67.84640       -7.01149
C         35.67805       68.46665       -7.77669
O         35.71509       69.77198       -8.12136
O         34.65975       67.82441       -7.97659
H         39.67625       67.41688       -7.29370
H         37.98656       65.78221       -5.65600
H         36.38694       65.83620       -7.62957
H         37.66398       66.61349       -8.62866
H         37.66351       68.56721       -6.94703
H         36.44487       67.65441       -5.98525
N         39.67292       63.86955       -7.68577
C         39.87502       62.48731       -8.06761
H         40.74713       62.08174       -7.51112
H         38.99400       61.85054       -7.84631
H         40.09197       62.43492       -9.15483
H         40.45932       64.49734       -7.84666
Ca        36.89956       70.36969       -9.90829
O         34.65611       72.50207      -12.43430
H         33.83570       73.04720      -12.33564
H         35.09476       72.86522      -13.24341
O         33.24933       70.12671       -9.69999
H         32.69400       70.91949       -9.49459
H         32.86409       69.40629       -9.14127
O         34.91842       72.79644       -9.20762
H         34.55894       72.31069       -8.42358
H         35.79587       73.13772       -8.90255
O         38.04533       72.85641      -11.33874
H         37.62373       73.33807      -10.58354
H         38.73038       72.28171      -10.91319

Ca 1.0



