%chk=apoCaM-CA-Ng.loop4.water7.frame1010.chk
%nprocshared=20
%mem=10GB
%nosave
#b3lyp/svp scf=(tight,noincore,xqc) Test 
#IOP(5/87=12) Density=Current Pop=(MK,readradii) iop(6/33=2) iop(6/42=6)

apoCaM-CA-Ng.loop4.water7.frame1010 

   -3  1 
C         12.45339       35.66580       27.00007
C         12.35289       35.25844       25.55222
O         13.37574       35.24018       24.88725
H         11.83187       36.56392       27.19369
H         12.12192       34.82955       27.65191
H         13.50560       35.91038       27.26635
N         11.17943       34.87083       24.96770
C          9.89535       34.77802       25.65199
C          9.53468       33.32654       25.91306
O          8.51427       33.08585       26.53945
C          8.75513       35.41619       24.81871
C          9.01928       36.81648       24.35219
O         10.20596       37.38809       24.58822
O          8.17233       37.41280       23.71111
H         11.21665       34.56372       23.98701
H          9.94883       35.28921       26.63603
H          7.82987       35.42049       25.43307
H          8.55696       34.79497       23.92658
N         10.33346       32.30251       25.48330
C         10.02709       30.90999       25.77784
C          8.76052       30.45693       25.06350
O          8.15123       29.49521       25.51736
C         11.23501       29.96450       25.46922
C         11.48595       29.79966       23.94476
C         12.50125       30.44695       26.21485
C         12.63410       28.84570       23.60998
H         11.19750       32.50976       24.97325
H          9.85424       30.84998       26.87620
H         10.97551       28.96177       25.87660
H         11.68871       30.77993       23.46567
H         10.57313       29.37086       23.48247
H         12.28633       30.58382       27.29508
H         13.31918       29.70368       26.13616
H         12.88450       31.40636       25.80848
H         12.46911       27.85592       24.08642
H         12.68946       28.70643       22.50975
H         13.60706       29.26102       23.94306
N          8.36914       31.02498       23.88185
C          7.23538       30.54890       23.09466
C          6.35907       31.71079       22.63195
O          6.74128       32.86218       22.81415
C          7.81388       29.76461       21.89721
C          6.78119       29.06679       21.06305
O          5.98492       28.13247       21.61767
O          6.67400       29.32472       19.87502
H          8.96032       31.76436       23.46816
H          6.61427       29.86025       23.70949
H          8.49385       28.97760       22.28798
H          8.41659       30.45537       21.26600
N          5.15727       31.48813       22.02452
C          4.32469       32.56325       21.50605
C          4.94512       33.20922       20.28710
O          5.97826       32.74900       19.82023
H          4.79917       30.52509       21.94115
H          4.15103       33.31419       22.30599
H          3.33903       32.15547       21.19205
N          4.34654       34.29390       19.71330
C          4.86045       34.93900       18.50500
C          3.78905       34.99265       17.42099
O          2.61993       34.83916       17.74435
C          5.41379       36.34863       18.82190
C          4.38690       37.30773       19.36870
O          4.12254       38.33159       18.75902
O          3.78773       37.07146       20.55120
H          3.49425       34.66835       20.15487
H          5.69913       34.32734       18.11828
H          5.84722       36.78886       17.89943
H          6.23688       36.25577       19.56199
N          4.07473       35.16858       16.09577
C          5.40870       35.25095       15.51463
C          5.66089       34.04609       14.62656
O          4.75009       33.24071       14.47846
H          3.28151       35.18403       15.43346
H          6.19687       35.28584       16.27828
H          5.45942       36.18629       14.92609
N          6.83898       33.79797       13.97735
C          8.09295       34.55454       14.02158
C          8.78878       34.46569       15.37710
O          8.25101       33.88214       16.30762
C          7.93830       36.02945       13.56933
C          7.10652       36.24624       12.29535
C          7.60843       35.46834       11.10756
N          6.78254       34.62506       10.44358
O          8.76095       35.61318       10.72855
H          6.85854       32.95894       13.37537
H          8.77972       34.06416       13.29576
H          8.94806       36.45665       13.39597
H          7.49084       36.63767       14.37793
H          7.13921       37.32914       12.04855
H          6.04706       35.98361       12.49850
H          5.80142       34.50504       10.73673
H          7.11722       34.10111        9.62194
N         10.01041       35.05393       15.55062
C         10.69744       35.10905       16.84057
C         11.16435       33.73676       17.30986
O         11.08550       32.76717       16.56796
C         11.89288       36.11641       16.81530
C         11.41468       37.54052       16.48574
C         13.01593       35.69336       15.85275
H         10.42733       35.53666       14.74580
H          9.96745       35.49390       17.58875
H         12.33548       36.16337       17.83402
H         10.64690       37.86486       17.22010
H         12.26559       38.25240       16.54127
H         10.97948       37.60562       15.46720
H         13.85775       36.41596       15.91070
H         13.40864       34.69559       16.13506
H         12.66884       35.65376       14.80042
N         11.65494       33.60365       18.57244
C         12.12715       32.35448       19.15969
C         13.55597       32.49258       19.68425
O         13.99681       31.61547       20.41383
C         11.13227       31.92674       20.25880
C         10.94660       32.99169       21.30103
N          9.75319       33.61317       21.43473
O         11.88773       33.31725       22.00722
H         11.66098       34.43912       19.17926
H         12.13208       31.52468       18.42044
H         11.45157       30.97773       20.74187
H         10.15817       31.72820       19.76004
H          8.94979       33.36121       20.84001
H          9.63985       34.37073       22.11629
N         14.35845       33.53627       19.31183
C         15.76090       33.63929       19.71056
C         16.19588       35.09123       19.87120
O         15.44550       36.00028       19.54657
C         16.63191       32.83672       18.71413
C         16.35669       33.20814       17.27207
C         16.77239       34.43970       16.73928
C         15.64867       32.31189       16.44996
C         16.47699       34.76914       15.41107
C         15.34556       32.64748       15.12924
C         15.75721       33.87953       14.60489
O         15.46077       34.22028       13.33449
H         14.01515       34.19778       18.60170
H         15.88938       33.18288       20.71778
H         16.35531       31.76926       18.85896
H         17.71725       32.91079       18.94276
H         17.32561       35.14367       17.34664
H         15.31023       31.35828       16.83643
H         16.80010       35.72118       15.00983
H         14.78448       31.95137       14.51811
H         14.94724       33.64025       12.75370
N         17.40852       35.36503       20.43140
C         17.92477       36.70646       20.67781
C         18.00867       36.89317       22.18249
O         19.07128       36.70766       22.76165
C         19.30514       36.83081       19.98477
C         19.95618       38.22451       20.10850
C         19.25238       39.31721       19.34383
O         18.25870       39.09012       18.67145
O         19.75287       40.56653       19.37663
H         17.99295       34.57158       20.73827
H         17.24677       37.48246       20.26638
H         19.21090       36.57859       18.90615
H         19.99263       36.08245       20.43839
H         20.98886       38.15906       19.70439
H         20.03046       38.51606       21.17716
N         16.88468       37.18857       22.89923
C         16.88263       37.18786       24.36102
C         17.00851       35.75774       24.89024
O         17.15156       35.59492       26.09422
C         15.60163       37.84108       24.92359
C         15.47594       39.32842       24.53394
C         14.14797       39.87943       24.95976
O         13.05856       39.16541       24.64847
O         14.05297       40.91718       25.59529
H         16.00754       37.37984       22.38998
H         17.74530       37.78941       24.72377
H         15.58459       37.76675       26.03376
H         14.73278       37.27917       24.52327
H         15.50770       39.41056       23.42914
H         16.30873       39.92940       24.95938
N         16.96057       34.67039       24.06092
C         17.12277       33.31663       24.53921
H         18.12255       33.20203       25.00846
H         16.32735       33.07061       25.27239
H         17.05362       32.60706       23.68529
H         16.80258       34.78035       23.05113
Ca        10.86938       39.51511       24.41952
O         12.35015       41.01512       21.99218
H         13.15638       40.45350       21.86927
H         12.70470       41.92383       22.16209
O         10.60624       40.23854       27.21443
H         10.90701       40.92223       27.86335
H         11.38426       39.63418       27.11226
O         10.50500       42.69971       24.87724
H         10.42543       43.00412       25.81593
H         10.20825       43.47634       24.33963
O         12.33862       37.65158       21.97452
H         12.62000       37.29407       22.85346
H         11.40495       37.33976       21.86962
O          8.69814       42.05381       22.33803
H          7.96408       41.66162       21.80223
H          8.32762       42.90866       22.67252
O          9.23015       39.17992       21.11785
H          8.46439       39.14417       21.74392
H          8.87283       39.64529       20.32036
O          7.67497       40.02400       24.82324
H          7.23537       40.90491       24.72779
H          6.94193       39.37190       24.69172

Ca 1.0



