%chk=apoCaM-CA-Ng.loop1.water2.frame792.chk
%nprocshared=20
%mem=10GB
%nosave
#b3lyp/svp scf=(tight,noincore,xqc) Test 
#IOP(5/87=12) Density=Current Pop=(MK,readradii) iop(6/33=2) iop(6/42=6)

apoCaM-CA-Ng.loop1.water2.frame792 

   0  1 
C         32.94117        1.84713       86.17604
C         32.81561        1.41130       87.60421
O         33.82451        1.11542       88.22853
H         34.00420        1.83751       85.85297
H         32.35342        1.17377       85.52020
H         32.55468        2.88461       86.07841
N         31.58875        1.37470       88.19813
C         31.39800        1.06674       89.61796
C         29.92661        0.93443       90.00217
O         29.05350        1.39346       89.27910
C         32.13155        2.10989       90.50696
C         32.16219        3.49301       89.87055
O         31.05393        4.23094       89.66064
O         33.23242        3.93761       89.48651
H         30.77100        1.60835       87.61540
H         31.82264        0.05446       89.80702
H         33.19140        1.78160       90.57761
H         31.74441        2.11342       91.54963
N         29.59356        0.18938       91.10273
C         28.22051       -0.12550       91.49262
C         27.97564        0.21435       92.95790
O         28.79772       -0.10206       93.80623
C         27.85894       -1.57494       91.10673
C         28.63173       -2.70687       91.80218
C         28.37070       -4.07233       91.12521
C         26.89627       -4.51976       91.12641
N         26.74061       -5.79950       90.43230
H         30.35593       -0.24593       91.64476
H         27.51242        0.47351       90.88084
H         28.03259       -1.65811       90.01041
H         26.77301       -1.71603       91.29320
H         28.36294       -2.74465       92.87976
H         29.72196       -2.51605       91.71759
H         28.97880       -4.84459       91.64437
H         28.72255       -4.01415       90.07133
H         26.26443       -3.77045       90.60450
H         26.53612       -4.61771       92.17383
H         27.04845       -5.70655       89.43623
H         27.30337       -6.54245       90.90590
H         25.73231       -6.07711       90.44325
N         26.84308        0.88535       93.31042
C         26.56640        1.42754       94.64455
C         25.11130        1.87527       94.73867
O         24.64364        2.54506       93.82793
C         27.46762        2.63420       94.96987
C         27.64824        3.52689       93.78601
O         28.60530        3.15688       92.92327
O         27.12310        4.62633       93.71105
H         26.14614        1.05124       92.56917
H         26.76445        0.66679       95.41703
H         28.48552        2.28577       95.25005
H         27.07457        3.18734       95.85218
N         24.32594        1.62370       95.82894
C         24.77592        0.99730       97.06375
C         25.09114       -0.47230       96.93880
O         24.96211       -1.04673       95.86586
H         23.36239        1.99294       95.82196
H         23.96851        1.08758       97.82197
H         25.66352        1.54487       97.45015
N         25.50395       -1.14901       98.04761
C         25.79667       -2.57660       98.04557
C         24.55317       -3.40547       98.32501
O         24.62164       -4.61884       98.18221
C         26.96627       -2.89445       99.00407
C         26.68849       -2.50276      100.43365
O         27.39438       -1.67495      100.98845
O         25.66886       -3.06374      101.11098
H         25.54682       -0.63477       98.94123
H         26.13196       -2.86870       97.02532
H         27.86553       -2.34334       98.64900
H         27.19974       -3.98008       98.96916
N         23.37329       -2.83048       98.70323
C         22.14771       -3.58820       98.87758
C         21.49864       -3.98257       97.56159
O         20.44377       -4.59709       97.61536
H         23.32709       -1.81920       98.89296
H         21.40659       -2.94429       99.39927
H         22.33747       -4.47342       99.52325
N         22.02806       -3.63052       96.34949
C         21.37142       -3.89801       95.07131
C         21.07243       -2.57367       94.37400
O         21.51088       -1.52962       94.83774
C         22.27960       -4.81043       94.20425
C         22.49145       -6.17540       94.86647
O         21.70734       -5.02059       92.93896
H         22.91869       -3.11724       96.30862
H         20.39573       -4.40699       95.23238
H         23.26631       -4.29913       94.09261
H         22.45407       -5.14302       92.29552
H         21.51753       -6.69923       94.98060
H         23.15485       -6.80094       94.23205
H         22.96380       -6.06721       95.86458
N         20.29276       -2.54677       93.25392
C         19.96644       -1.31292       92.53777
C         19.18711       -0.35745       93.43176
O         19.24453        0.84293       93.19577
C         19.15779       -1.62297       91.23091
C         19.90397       -2.58558       90.26181
C         18.73593       -0.34546       90.47475
C         21.24633       -2.06724       89.73861
H         19.90334       -3.43574       92.91548
H         20.92078       -0.81590       92.26022
H         18.21629       -2.13825       91.52809
H         19.24501       -2.79064       89.38977
H         20.08634       -3.56375       90.74969
H         18.05792        0.27937       91.09060
H         19.61594        0.26660       90.19019
H         18.16696       -0.61257       89.55887
H         21.12066       -1.12068       89.17561
H         21.96543       -1.91468       90.56864
H         21.68091       -2.81945       89.04736
N         18.40962       -0.81930       94.45091
C         17.56801        0.03879       95.27570
C         16.11270       -0.36172       95.10429
O         15.83107       -1.31809       94.39016
C         18.03382        0.00316       96.75399
C         18.00587       -1.39778       97.37802
O         19.33983        0.51537       96.82732
H         18.37106       -1.83439       94.62801
H         17.64016        1.09731       94.94015
H         17.35021        0.66150       97.33860
H         19.45555        0.88988       97.74002
H         16.98473       -1.82951       97.33011
H         18.71943       -2.07651       96.86619
H         18.30906       -1.33229       98.44456
N         15.12616        0.34696       95.71834
C         13.71127        0.03847       95.57507
C         12.99710        1.24022       94.97140
O         12.45164        1.11980       93.88424
C         13.13878       -0.42641       96.94381
C         11.66383       -0.81950       96.85863
O         13.28604        0.55725       97.93614
H         15.38770        1.14955       96.31124
H         13.57098       -0.81746       94.87592
H         13.68984       -1.34741       97.25302
H         14.17712        0.42605       98.35407
H         11.31881       -1.18162       97.85124
H         11.03968        0.05119       96.56656
H         11.52390       -1.63616       96.11944
N         12.94570        2.42607       95.64122
C         12.23296        3.60653       95.17346
C         13.09955        4.83816       95.35311
O         13.64316        5.01713       96.43518
C         10.95657        3.76048       96.02089
C         10.13273        4.99383       95.61219
C          8.84148        5.08548       96.42655
C          8.04027        6.33451       96.03927
N          6.79649        6.41165       96.80324
H         13.37538        2.48359       96.57325
H         11.90475        3.50121       94.11466
H         11.22305        3.83538       97.09853
H         10.33514        2.84863       95.87780
H          9.88110        4.93087       94.53041
H         10.72864        5.91643       95.78585
H          9.08985        5.13303       97.50960
H          8.22696        4.17818       96.23792
H          7.80164        6.30326       94.95277
H          8.65096        7.24400       96.23812
H          7.00573        6.46306       97.82676
H          6.27358        7.27134       96.51974
H          6.20307        5.57325       96.60566
N         13.17673        5.79382       94.38143
C         13.76871        7.09859       94.65362
C         15.26262        7.11257       94.35585
O         16.01276        7.39293       95.27996
C         12.95697        8.23863       93.99629
C         13.38805        9.61501       94.53441
C         12.54367       10.71743       93.96516
O         11.79083       11.47994       94.78191
O         12.54347       10.93680       92.76464
H         12.62695        5.66500       93.51792
H         13.63989        7.30643       95.74148
H         11.88541        8.09693       94.26294
H         13.02595        8.21600       92.89455
H         14.45376        9.81202       94.29273
H         13.27220        9.62055       95.64139
N         15.81759        6.82005       93.14222
C         15.08749        6.41404       91.96050
H         14.40832        7.21189       91.61398
H         15.80280        6.21549       91.13400
H         14.53014        5.47568       92.15216
H         16.84553        6.86348       93.05952
Ca        29.36714        4.12093       91.09208
O         29.98869        6.63328       92.45331
H         29.01981        6.43824       92.52006
H         30.43141        5.82449       92.81558
O         26.06529        2.65002       90.11471
H         25.62625        1.96268       89.55295
H         25.44176        2.78688       90.87148

Ca 1.0



