%chk=apoCaM-CA-Ng.loop3.water5.frame1057.chk
%nprocshared=20
%mem=10GB
%nosave
#b3lyp/svp scf=(tight,noincore,xqc) Test 
#IOP(5/87=12) Density=Current Pop=(MK,readradii) iop(6/33=2) iop(6/42=6)

apoCaM-CA-Ng.loop3.water5.frame1057 

   0  1 
C         29.61302       94.74711       45.17051
C         30.50401       95.94321       45.32589
O         31.20835       96.04106       46.32078
H         28.55626       95.07927       45.08256
H         29.89629       94.18942       44.25411
H         29.70047       94.07154       46.04781
N         30.48895       96.92052       44.37868
C         31.27758       98.14248       44.47075
C         30.39462       99.30221       44.89535
O         30.74353       99.96601       45.86000
C         32.12680       98.40295       43.19868
C         31.44028       98.54930       41.85938
O         30.11367       98.41053       41.70370
O         32.12273       98.77982       40.87416
H         29.83760       96.81048       43.58815
H         32.03861       98.04421       45.27924
H         32.84852       97.56345       43.09640
H         32.71375       99.33064       43.37656
N         29.18847       99.54188       44.31090
C         28.28690      100.59822       44.75638
C         28.80466      101.94500       44.29898
O         28.91883      102.16517       43.10076
C         26.87224      100.35703       44.20175
C         26.27717       99.05784       44.78326
C         24.89393       98.71507       44.22048
C         24.94262       98.34724       42.72771
N         23.62475       97.93555       42.25035
H         28.85851       98.90083       43.58157
H         28.20826      100.56947       45.86720
H         26.93662      100.31329       43.09506
H         26.20764      101.20310       44.48452
H         26.18652       99.18479       45.88472
H         26.94642       98.18998       44.60079
H         24.19472       99.56193       44.39147
H         24.51685       97.83190       44.78109
H         25.66046       97.50918       42.57868
H         25.28577       99.21236       42.12296
H         23.29573       97.09798       42.78344
H         22.94240       98.71974       42.36407
H         23.69222       97.68628       41.23716
N         29.16710      102.88413       45.21540
C         29.73017      104.18401       44.86170
C         31.22203      104.24032       45.15188
O         31.81652      105.28491       44.92315
C         28.93122      105.33933       45.50907
C         28.85411      105.35690       47.01410
O         28.21961      106.24431       47.56045
O         29.43052      104.40621       47.77145
H         29.09893      102.63289       46.21114
H         29.65429      104.35110       43.76439
H         27.88949      105.29203       45.12389
H         29.36902      106.30522       45.17356
N         31.91434      103.12709       45.54053
C         33.35897      103.07680       45.64331
C         33.88842      102.22128       44.51083
O         33.57877      102.56201       43.37726
H         31.42226      102.24146       45.68664
H         33.64226      102.74210       46.65532
H         33.80249      104.08576       45.50690
N         34.72505      101.15008       44.64902
C         35.26858      100.58676       45.88351
C         35.12836       99.06721       45.83273
O         35.41943       98.50081       44.78707
C         36.75794      100.96218       45.99971
C         36.94522      102.46164       46.09593
N         37.43600      103.02907       47.22208
O         36.64991      103.17303       45.14719
H         35.06944      100.73236       43.76854
H         34.77982      100.98600       46.78757
H         37.33680      100.57783       45.13172
H         37.16008      100.48297       46.91892
H         37.68821      102.45563       48.03949
H         37.55229      104.05190       47.28127
N         34.73870       98.29561       46.88822
C         34.53679       98.78630       48.24660
C         34.17446       97.66390       49.20886
O         33.78292       96.59251       48.76683
H         34.67068       97.28184       46.70887
H         33.74245       99.56070       48.28632
H         35.49776       99.23250       48.58211
N         34.32588       97.83236       50.55733
C         34.01565       96.77677       51.52370
C         33.06965       97.29550       52.60301
O         32.87611       98.49808       52.71326
C         35.33943       96.26470       52.14143
C         35.18217       95.02122       52.98702
C         35.46116       95.04987       54.36367
C         34.77065       93.81222       52.39776
C         35.31964       93.89344       55.13804
C         34.63591       92.65622       53.17266
C         34.90812       92.69405       54.54737
O         34.78069       91.58753       55.30759
H         34.72185       98.71952       50.90401
H         33.51636       95.93431       51.00001
H         35.79273       97.09173       52.73167
H         36.05357       96.01230       51.32653
H         35.78360       95.96663       54.84011
H         34.56171       93.76184       51.33652
H         35.53215       93.92918       56.19906
H         34.32195       91.73207       52.70335
H         34.50168       90.73757       54.93769
N         32.42677       96.42253       53.43206
C         31.54511       96.85358       54.52283
C         32.31784       97.58924       55.61656
O         33.54154       97.59780       55.58715
C         30.71691       95.65934       55.10893
C         29.62705       95.24103       54.08977
C         31.59519       94.46386       55.55113
C         28.67817       94.15645       54.60212
H         32.54896       95.42220       53.23944
H         30.82364       97.59274       54.10938
H         30.18028       96.02814       56.00987
H         30.08603       94.89998       53.13740
H         29.00383       96.13698       53.87163
H         32.06491       93.94274       54.69215
H         32.39170       94.79416       56.24815
H         30.98460       93.70537       56.08194
H         29.21098       93.19417       54.74187
H         28.21201       94.46803       55.56102
H         27.87260       93.99207       53.85527
N         31.64436       98.27041       56.59803
C         32.30984       99.03553       57.65505
C         31.99170      100.52478       57.56051
O         31.12725      100.91396       56.78797
C         31.91946       98.48187       59.03275
O         30.53695       98.60830       59.22972
H         30.61274       98.26732       56.58134
H         33.41189       98.93919       57.54528
H         32.46237       99.04111       59.82711
H         32.20852       97.40826       59.08082
H         30.35035       98.23456       60.12979
N         32.73189      101.41732       58.28963
C         32.65375      102.87751       58.19788
C         31.43852      103.50886       58.86187
O         31.32122      104.72372       58.77337
C         32.81731      103.35298       56.74333
H         33.48199      101.03853       58.88783
H         33.52352      103.29159       58.75521
H         32.89897      104.46053       56.70883
H         33.74731      102.92829       56.31030
H         31.95538      103.06604       56.10880
N         30.52601      102.79213       59.58412
C         29.38298      103.40242       60.26335
C         28.48538      104.07643       59.24906
O         28.25297      105.27618       59.32651
C         29.83548      104.36182       61.38184
H         30.63514      101.77181       59.67073
H         28.79136      102.59907       60.75602
H         28.94713      104.76188       61.91780
H         30.46834      103.82078       62.11530
H         30.40850      105.22635       60.98881
N         27.95150      103.32975       58.24683
C         27.11507      103.87855       57.19382
C         25.72983      103.27956       57.31353
O         24.77517      104.02770       57.47469
C         27.78608      103.60831       55.83386
C         27.06926      104.31999       54.67970
C         27.79589      104.09861       53.38487
O         27.23109      103.55727       52.44845
O         29.07134      104.51105       53.24600
H         28.15959      102.31917       58.22719
H         27.02819      104.98335       57.30248
H         27.84165      102.51432       55.63960
H         28.82686      104.00069       55.88536
H         27.04096      105.41359       54.87765
H         26.02598      103.94651       54.59705
N         25.54650      101.93012       57.29574
C         24.24513      101.33098       57.49382
H         23.54869      101.65400       56.69256
H         24.33128      100.22378       57.47537
H         23.83926      101.63345       58.48382
H         26.35487      101.30322       57.16992
Ca        28.94944      104.35236       49.97642
O         26.88695      102.10375       49.50399
H         27.07253      101.18975       49.83652
H         26.92294      102.02272       48.51775
O         26.13033      105.94942       50.03789
H         26.06839      106.40532       49.16140
H         25.52325      106.46429       50.62638
O         31.82879      104.59367       50.05820
H         31.95341      105.11859       49.22786
H         32.19863      105.16703       50.77535
O         29.04867      107.11829       50.95498
H         28.67499      107.91352       50.49903
H         29.80963      107.46524       51.48454
O         29.81582      101.81288       51.37356
H         29.98480      102.04963       52.31983
H         30.68269      101.46480       51.04606

Ca 1.0



