%chk=apoCaM-CA-Ng.loop4.water4.frame740.chk
%nprocshared=20
%mem=10GB
%nosave
#b3lyp/svp scf=(tight,noincore,xqc) Test 
#IOP(5/87=12) Density=Current Pop=(MK,readradii) iop(6/33=2) iop(6/42=6)

apoCaM-CA-Ng.loop4.water4.frame740 

   -3  1 
C        117.82365       21.94397       87.40450
C        119.31513       21.82918       87.27739
O        119.81480       20.71939       87.17172
H        117.34801       20.93859       87.39869
H        117.56083       22.45635       88.35186
H        117.42122       22.52819       86.55036
N        120.09126       22.95267       87.23572
C        121.54614       22.94499       87.06824
C        121.92335       22.14143       85.84211
O        122.75170       21.24276       85.92897
C        122.25748       22.42404       88.34080
C        122.08767       23.33012       89.52519
O        121.58616       24.57486       89.39945
O        122.39578       22.92350       90.63376
H        119.62016       23.86966       87.27351
H        121.88810       23.98769       86.88747
H        123.35022       22.30807       88.17864
H        121.84030       21.42377       88.58870
N        121.31641       22.39707       84.65100
C        121.65649       21.64321       83.44990
C        123.07938       22.00251       83.01098
O        123.56042       23.04860       83.42660
C        120.61752       21.88430       82.30620
C        120.59370       23.35351       81.81005
C        119.22067       21.40680       82.75039
C        119.81655       23.52205       80.50287
H        120.58032       23.11719       84.62277
H        121.60916       20.56744       83.72156
H        120.90786       21.25753       81.44748
H        121.62944       23.68692       81.59263
H        120.17021       24.02665       82.58502
H        118.49058       21.44918       81.91813
H        119.27800       20.35208       83.08226
H        118.82733       22.01415       83.59218
H        118.74879       23.25116       80.61720
H        119.86994       24.58127       80.17571
H        120.27235       22.88902       79.71056
N        123.83566       21.24561       82.16283
C        123.48859       19.92312       81.66078
C        123.40485       18.88744       82.76479
O        122.45780       18.11172       82.75017
C        124.43399       19.45418       80.52386
C        125.91737       19.36647       80.79069
O        126.46429       19.74382       81.95834
O        126.65046       18.96871       79.90008
H        124.74503       21.63964       81.87730
H        122.50998       19.95090       81.14967
H        124.30300       20.15001       79.66688
H        124.08631       18.44922       80.19412
N        124.34954       18.78799       83.74694
C        124.33605       17.69501       84.70161
C        124.62502       16.38750       83.99896
O        125.01365       16.39444       82.83693
H        125.09512       19.49010       83.82816
H        123.34063       17.66373       85.19590
H        125.11002       17.84419       85.48542
N        124.43115       15.20714       84.64572
C        124.66710       13.91135       84.01177
C        123.78398       13.64441       82.78196
O        123.98367       12.60745       82.16488
C        124.59808       12.77454       85.06595
C        123.29998       12.66107       85.82099
O        123.27714       12.87673       87.15001
O        122.27606       12.32545       85.25784
H        124.12140       15.24032       85.62922
H        125.71735       13.90338       83.64277
H        125.39604       12.97732       85.81277
H        124.83098       11.79611       84.59219
N        122.83988       14.52791       82.32018
C        122.07273       14.30189       81.10043
C        121.04433       13.19911       81.23466
O        120.40283       12.87793       80.24517
H        122.66740       15.41486       82.80589
H        122.77727       14.07801       80.26887
H        121.52015       15.22866       80.83161
N        120.81494       12.59390       82.43489
C        119.87855       11.50730       82.67638
C        118.42167       11.93346       82.56458
O        117.56749       11.07229       82.72248
C        120.23375       10.25771       81.83501
C        121.67752        9.79686       82.12709
C        122.05803        8.49935       81.45938
N        123.29573        7.98726       81.65497
O        121.26064        7.89997       80.75278
H        121.33970       12.91227       83.24847
H        119.98811       11.19556       83.73973
H        120.10841       10.44801       80.74826
H        119.54029        9.43763       82.12300
H        121.79782        9.65590       83.22324
H        122.38860       10.57926       81.79075
H        123.97928        8.47881       82.25033
H        123.57249        7.09690       81.21570
N        118.05097       13.24100       82.39397
C        116.65584       13.67762       82.39699
C        116.34452       14.60665       83.57120
O        115.19149       15.00328       83.67780
C        116.27638       14.35101       81.04455
C        117.02916       15.66823       80.78972
C        116.48846       13.38853       79.86817
H        118.77168       13.96794       82.29663
H        115.98174       12.80162       82.51848
H        115.19017       14.59314       81.07903
H        116.82756       16.39370       81.60394
H        118.12356       15.50548       80.71127
H        116.67608       16.12829       79.84206
H        116.14109       13.85867       78.92310
H        117.56197       13.12683       79.75715
H        115.90511       12.45652       80.02450
N        117.28903       15.00883       84.48079
C        116.99448       15.95336       85.55982
C        117.21080       15.34845       86.93466
O        117.66298       14.21775       87.05605
C        117.83881       17.22898       85.37519
C        117.44190       17.95206       84.11557
N        116.19973       18.47847       83.98810
O        118.24775       18.06926       83.20616
H        118.25902       14.67059       84.40328
H        115.92026       16.23612       85.54234
H        118.91522       16.94843       85.34328
H        117.69681       17.93647       86.21940
H        115.51168       18.40045       84.75197
H        115.92469       18.97629       83.12899
N        116.79323       16.05495       88.02481
C        116.75124       15.51396       89.38301
C        115.75684       16.29093       90.25001
O        115.09681       17.18725       89.74803
C        118.15604       15.41441       90.02813
C        118.73938       16.73203       90.49046
C        119.13337       17.72265       89.57790
C        118.91004       16.96717       91.86935
C        119.69047       18.92076       90.04168
C        119.45805       18.16733       92.32531
C        119.85247       19.14739       91.41429
O        120.38563       20.29953       91.86771
H        116.36671       16.97440       87.83837
H        116.34363       14.48036       89.31959
H        118.86862       14.89571       89.35266
H        118.05178       14.75339       90.91466
H        119.02431       17.56533       88.51299
H        118.61531       16.22288       92.59847
H        120.00311       19.67488       89.34093
H        119.57817       18.33447       93.38854
H        120.66918       21.00384       91.26879
N        115.56728       15.97600       91.55981
C        114.58088       16.63335       92.40943
C        115.28419       17.32888       93.56611
O        115.34716       16.75296       94.64398
C        113.57103       15.58058       92.91180
C        112.75435       14.98219       91.75716
C        111.78865       13.95162       92.26311
O        110.46410       14.12681       92.09580
O        112.19917       12.94489       92.81859
H        116.12628       15.21928       91.98054
H        113.97616       17.38143       91.86427
H        112.86405       16.06567       93.62185
H        114.11422       14.77203       93.45028
H        113.42483       14.50298       91.01246
H        112.19146       15.79766       91.25125
N        115.85281       18.56806       93.46471
C        115.82689       19.43680       92.28942
C        114.40986       19.87738       91.95734
O        113.70223       20.32625       92.84878
C        116.65873       20.70837       92.55973
C        116.74781       21.58103       91.30275
C        117.52708       22.82579       91.55192
O        118.64852       23.01634       90.85257
O        117.13322       23.67558       92.33407
H        116.33447       18.92455       94.30625
H        116.30268       18.91127       91.43230
H        117.68910       20.41937       92.85875
H        116.20571       21.28750       93.39455
H        115.74463       21.88615       90.94049
H        117.24330       20.99134       90.49801
N        113.96588       19.85052       90.66877
C        112.65431       20.30948       90.26115
H        112.03851       20.65035       91.11914
H        112.76907       21.15880       89.55424
H        112.11984       19.48468       89.74643
H        114.60036       19.53212       89.92380
Ca       119.83627       24.89048       90.71881
O        121.05735       27.51661       91.80409
H        120.79579       28.46868       91.73358
H        121.75522       27.39746       91.11175
O        120.00496       23.53313       94.19098
H        119.07558       23.37188       94.49207
H        120.55890       23.35999       94.99327
O        118.53994       26.26958       93.37019
H        117.74259       26.85625       93.38745
H        119.14141       26.64558       94.06100
O        122.63054       24.98581       92.88896
H        122.52632       25.46249       93.75045
H        123.25007       25.55257       92.36403

Ca 1.0



