%chk=apoCaM-CA-Ng.loop1.water3.frame1360.chk
%nprocshared=20
%mem=10GB
%nosave
#b3lyp/svp scf=(tight,noincore,xqc) Test 
#IOP(5/87=12) Density=Current Pop=(MK,readradii) iop(6/33=2) iop(6/42=6)

apoCaM-CA-Ng.loop1.water3.frame1360 

   0  1 
C         86.18194       33.09251       86.29133
C         86.48601       34.14000       87.31716
O         86.47457       35.31087       86.96393
H         85.18231       33.28938       85.85083
H         86.94555       33.13643       85.48474
H         86.18923       32.07638       86.73470
N         86.81699       33.79745       88.59947
C         87.17294       34.79156       89.60658
C         88.67145       34.77004       89.83026
O         89.13819       34.78677       90.96142
C         86.37477       34.56681       90.90571
C         84.89186       34.57801       90.67068
O         84.16041       33.48167       90.94978
O         84.34200       35.57692       90.23564
H         86.88243       32.79993       88.85204
H         86.95186       35.80603       89.22744
H         86.62629       35.35627       91.64726
H         86.66164       33.58107       91.33406
N         89.49238       34.74046       88.74652
C         90.94151       34.80842       88.82134
C         91.37690       36.18733       89.29278
O         92.11952       36.23382       90.26286
C         91.59637       34.40878       87.47905
C         91.23626       32.95076       87.12602
C         91.87357       32.49291       85.81318
C         91.43168       31.05907       85.48019
N         91.99798       30.61457       84.20851
H         89.06081       34.65654       87.81598
H         91.30483       34.05026       89.55326
H         92.70150       34.48311       87.58341
H         91.28287       35.08365       86.65725
H         90.13498       32.85114       87.02605
H         91.57387       32.27780       87.94595
H         92.98151       32.53497       85.89973
H         91.54875       33.17161       84.99522
H         90.32084       31.02143       85.41336
H         91.75486       30.36728       86.29039
H         91.68602       31.24831       83.43708
H         93.04211       30.60780       84.26274
H         91.66082       29.64568       84.00549
N         90.95216       37.37123       88.74933
C         89.99864       37.55216       87.65266
C         88.67226       38.07682       88.19878
O         88.53816       38.23691       89.40388
C         90.62442       38.41593       86.54144
C         91.12493       39.73422       87.04272
O         90.27127       40.63107       87.56508
O         92.31423       39.99848       86.96971
H         91.28914       38.23257       89.20724
H         89.74697       36.60018       87.16757
H         89.89859       38.58824       85.71825
H         91.48180       37.85113       86.11209
N         87.60538       38.25656       87.37017
C         86.25161       38.49091       87.85413
C         86.01627       39.78708       88.59283
O         86.90406       40.61789       88.71231
H         87.72484       38.10303       86.35780
H         85.96620       37.66083       88.52827
H         85.55426       38.47296       86.98827
N         84.76427       40.00605       89.09270
C         84.30988       41.25110       89.71729
C         82.78575       41.41741       89.52518
O         82.11666       40.43802       89.22696
C         84.64570       41.25636       91.23055
C         86.11665       41.27111       91.51624
O         86.80701       42.20522       91.13980
O         86.67163       40.27598       92.23209
H         84.07741       39.25596       88.92626
H         84.80723       42.08790       89.19181
H         84.18069       40.36589       91.70723
H         84.22653       42.14260       91.73610
N         82.12735       42.61056       89.66530
C         82.75966       43.89008       89.92906
C         83.63796       44.33697       88.78714
O         83.56320       43.78470       87.70099
H         81.10067       42.61255       89.55831
H         83.34151       43.83592       90.86330
H         81.98921       44.67575       90.08431
N         84.53389       45.33384       88.99651
C         85.48096       45.81531       87.99416
C         86.35581       44.68376       87.44334
O         86.92382       43.92369       88.21190
C         86.32880       46.95872       88.60395
C         87.37930       47.49772       87.63021
O         86.95839       46.52355       89.78062
H         84.55476       45.75445       89.93913
H         84.91121       46.26138       87.14921
H         85.61491       47.78457       88.84303
H         87.00331       47.30446       90.39314
H         87.91259       48.35499       88.09206
H         88.12989       46.71570       87.38682
H         86.89493       47.83873       86.69161
N         86.51815       44.57398       86.08722
C         87.31977       43.59092       85.35175
C         88.78375       43.62335       85.74468
O         89.10664       43.29333       86.87765
C         86.76403       42.14207       85.45136
C         85.24373       42.05453       85.18138
C         87.53363       41.19949       84.49984
C         84.77963       42.61209       83.83349
H         86.04336       45.27586       85.49989
H         87.25277       43.87630       84.27809
H         86.91952       41.77048       86.48356
H         84.71757       42.61238       85.97247
H         84.92394       40.99283       85.26433
H         87.44218       41.53333       83.44444
H         88.61328       41.17063       84.75351
H         87.14658       40.16242       84.58178
H         83.67765       42.50111       83.75800
H         85.01280       43.69353       83.75020
H         85.24357       42.06655       82.98822
N         89.73714       43.96453       84.83139
C         91.16155       43.92142       85.12592
C         91.77037       45.30680       85.18528
O         92.95644       45.38519       85.45193
C         91.90452       42.97998       84.13692
C         91.99242       43.53142       82.71247
O         91.26906       41.73023       84.08216
H         89.44177       44.26082       83.88843
H         91.32478       43.49246       86.14013
H         92.95353       42.83979       84.48793
H         91.26953       41.36766       85.00146
H         92.54488       44.49404       82.69885
H         92.54862       42.80976       82.07588
H         90.98481       43.67760       82.27496
N         91.01959       46.44205       84.99779
C         91.55434       47.78716       85.21057
C         91.96189       47.89776       86.67131
O         91.11027       48.04821       87.53591
C         90.51935       48.87164       84.81026
C         90.28291       48.85788       83.29081
O         89.31025       48.64607       85.49124
H         90.02844       46.35120       84.74495
H         92.45289       47.92037       84.56763
H         90.92289       49.87047       85.09130
H         88.67783       49.36368       85.22724
H         89.54426       49.63886       83.01207
H         91.23248       49.07660       82.75786
H         89.89788       47.87455       82.94844
N         93.25325       47.61071       87.00524
C         93.75635       47.34116       88.34811
C         93.02284       46.17978       89.00759
O         91.94607       45.80558       88.56730
C         93.80117       48.58850       89.24389
C         94.55704       49.72539       88.54256
C         94.82092       50.90525       89.47961
C         95.43934       52.07277       88.69810
N         95.81273       53.16798       89.59078
H         93.92934       47.46552       86.24020
H         94.81005       47.00428       88.21176
H         94.32640       48.31560       90.18607
H         92.77558       48.93172       89.50116
H         93.95374       50.06129       87.67081
H         95.54025       49.35586       88.17438
H         95.51557       50.57198       90.28246
H         93.87181       51.24803       89.94597
H         94.69453       52.43617       87.95446
H         96.34455       51.73241       88.14712
H         94.99793       53.45692       90.17881
H         96.60393       52.86602       90.20491
H         96.12486       53.98384       89.01603
N         93.60499       45.49823       90.03106
C         92.99126       44.33541       90.67343
C         92.49305       43.30715       89.62224
O         91.95092       42.14238       90.17151
C         93.95614       43.69227       91.70194
C         94.24867       44.61285       92.89559
C         95.25118       43.97719       93.81697
O         94.98574       42.79091       94.39695
O         96.31512       44.53254       94.04104
H         94.54989       45.79099       90.32114
H         92.07807       44.65673       91.22167
H         94.91209       43.42537       91.20993
H         93.50254       42.75940       92.10346
H         93.30791       44.80576       93.45485
H         94.65251       45.58616       92.54813
N         93.28248       43.06177       88.40388
C         94.70029       42.79492       88.61520
H         94.85143       41.96307       89.33385
H         95.16145       42.51816       87.64352
H         95.21245       43.71871       88.95179
H         92.85513       42.25463       87.89713
Ca        89.72206       42.39107       89.72723
O         89.58464       43.49822       92.54220
H         89.11237       44.35771       92.40752
H         88.89742       42.89657       92.92388
O         89.35438       45.22820       89.89805
H         89.45138       45.22519       88.91315
H         89.72788       46.09753       90.18797
O         89.53831       40.13294       91.42035
H         90.23125       39.68114       90.87723
H         89.17640       39.42275       92.00563

Ca 1.0



