%chk=apoCaM-CA-Ng.loop1.water3.frame459.chk
%nprocshared=20
%mem=10GB
%nosave
#b3lyp/svp scf=(tight,noincore,xqc) Test 
#IOP(5/87=12) Density=Current Pop=(MK,readradii) iop(6/33=2) iop(6/42=6)

apoCaM-CA-Ng.loop1.water3.frame459 

   0  1 
C         68.20343       60.43879       69.25293
C         67.19075       60.83164       68.21752
O         66.34630       60.02411       67.85702
H         69.22654       60.54910       68.83560
H         68.10298       61.10256       70.13839
H         68.05634       59.38714       69.57617
N         67.21674       62.08917       67.70197
C         66.25000       62.58199       66.72504
C         66.41663       61.95012       65.34023
O         65.69527       62.36845       64.45478
C         66.38287       64.12268       66.56269
C         66.09665       64.89501       67.82698
O         65.16252       65.68067       67.86131
O         66.88324       64.76282       68.91170
H         67.93804       62.73331       68.05969
H         65.21948       62.38247       67.09601
H         65.64760       64.46472       65.80106
H         67.39874       64.38455       66.19478
N         67.35260       61.00865       65.02779
C         67.62708       60.62200       63.64163
C         67.42758       59.13794       63.37899
O         67.83730       58.35166       64.22149
C         69.06597       61.05467       63.30762
C         69.16035       62.58885       63.33113
C         70.50591       63.09377       62.81504
C         70.51696       64.62870       62.77724
N         71.76991       65.13275       62.22256
H         67.96977       60.62671       65.75749
H         66.97658       61.16616       62.94468
H         69.32870       60.70817       62.29177
H         69.79489       60.59885       64.01259
H         68.98081       62.96955       64.36019
H         68.36962       62.99364       62.66612
H         70.66234       62.70706       61.78371
H         71.32354       62.72267       63.46942
H         70.37228       65.03115       63.80450
H         69.68158       64.99207       62.14353
H         72.57399       64.82775       62.81644
H         71.89343       64.78019       61.24525
H         71.73465       66.17760       62.20067
N         66.90556       58.62975       62.20695
C         66.43542       59.37451       61.02446
C         67.50267       60.30657       60.49584
O         67.32812       61.51524       60.54462
C         65.04732       60.02347       61.24012
C         64.00364       58.96013       61.43874
O         62.84986       59.27362       61.68537
O         64.35507       57.65751       61.39625
H         66.88923       57.60161       62.11828
H         66.24113       58.66248       60.19351
H         64.75396       60.60616       60.33999
H         65.04303       60.70278       62.11378
N         68.64793       59.83326       59.93172
C         68.88615       58.41358       59.68563
C         70.13486       58.17270       58.86434
O         70.93216       59.08531       58.70343
H         69.32560       60.53516       59.59891
H         68.04149       58.04248       59.07486
H         68.92694       57.83358       60.63097
N         70.37074       56.99279       58.22318
C         69.51566       55.80828       58.25529
C         68.83341       55.63403       56.91150
O         69.49720       55.71333       55.88601
C         70.31292       54.54190       58.63744
C         71.43511       54.18568       57.69282
O         71.39081       53.14302       57.05995
O         72.51374       54.98259       57.57240
H         71.19615       56.96789       57.60829
H         68.72603       55.90193       59.03002
H         69.59026       53.69494       58.66511
H         70.73209       54.65804       59.65903
N         67.49523       55.37342       56.84424
C         66.78147       55.26157       55.58416
C         66.70929       56.61840       54.94626
O         67.23747       56.81494       53.86166
H         66.95940       55.24221       57.71575
H         65.73976       54.91969       55.76920
H         67.28062       54.51523       54.92829
N         66.07400       57.61804       55.61405
C         66.03821       59.00411       55.17119
C         66.73378       59.87417       56.20686
O         67.09238       59.38543       57.26632
C         64.57547       59.45788       54.89172
C         63.59873       59.17685       56.04534
O         64.09234       58.86560       53.71190
H         65.63089       57.38972       56.51832
H         66.61771       59.12965       54.23094
H         64.58464       60.55475       54.71547
H         64.10422       57.88129       53.83648
H         63.46180       58.08451       56.19340
H         63.97370       59.61153       56.99050
H         62.60201       59.60821       55.80932
N         66.98945       61.18323       55.94016
C         67.66766       62.08502       56.87012
C         66.71505       63.19536       57.31735
O         67.17040       64.22107       57.80185
C         69.00765       62.60086       56.24813
C         68.79574       63.41329       54.94292
C         69.96142       61.40884       56.02005
C         70.08083       64.05114       54.40376
H         66.68041       61.56564       55.03468
H         67.95521       61.56038       57.80475
H         69.48804       63.26740       56.99902
H         68.08197       64.23880       55.14590
H         68.36973       62.76861       54.14565
H         70.96510       61.74256       55.68898
H         70.10992       60.85419       56.96838
H         69.55224       60.70802       55.26121
H         70.82501       63.28636       54.10217
H         69.84332       64.65258       53.50107
H         70.53044       64.72095       55.16694
N         65.36218       63.02199       57.22114
C         64.35802       64.03388       57.55780
C         64.31876       64.45280       59.02811
O         63.66062       65.43964       59.32483
C         62.94475       63.51770       57.15705
C         62.50373       62.30733       58.00358
O         62.93482       63.14108       55.80392
H         65.02317       62.13374       56.83172
H         64.59681       64.93428       56.94914
H         62.18506       64.31575       57.32047
H         62.95416       63.97792       55.27173
H         63.22118       61.47091       57.93285
H         62.42268       62.57432       59.07351
H         61.51194       61.94288       57.66725
N         64.92484       63.71846       60.00388
C         64.87841       64.00372       61.44295
C         63.45630       63.90102       62.01360
O         62.50307       63.80999       61.25477
C         65.53511       65.37171       61.78078
C         66.90190       65.52910       61.10942
O         65.70080       65.48182       63.17089
H         65.44361       62.87806       59.72160
H         65.48051       63.20614       61.93134
H         64.87413       66.19074       61.41535
H         65.76221       66.44922       63.38481
H         66.79797       65.54160       60.00672
H         67.36859       66.48994       61.41363
H         67.56497       64.69278       61.39268
N         63.24917       63.87148       63.36435
C         61.93497       63.81347       63.99722
C         61.65717       62.46385       64.67047
O         60.56600       62.30768       65.20138
C         61.83701       64.94321       65.04816
C         62.03869       66.34332       64.44696
C         61.90570       67.42313       65.53056
C         62.03714       68.83146       64.93524
N         61.84865       69.85408       65.96467
H         64.05669       63.90237       63.99186
H         61.13478       63.95360       63.23793
H         62.60654       64.77455       65.83596
H         60.83467       64.90690       65.52834
H         61.26793       66.51116       63.66415
H         63.04542       66.41998       63.98059
H         62.69016       67.27499       66.30627
H         60.90779       67.33103       66.01166
H         61.26638       68.96942       64.14478
H         63.04183       68.95221       64.47195
H         60.90009       69.75856       66.39575
H         62.58229       69.76333       66.70439
H         61.92289       70.80037       65.52605
N         62.56443       61.44068       64.68272
C         62.30830       60.13586       65.29979
C         61.97591       60.27382       66.77091
O         62.79886       60.74940       67.54119
C         63.52864       59.20339       65.09433
C         63.48417       57.82037       65.77967
C         62.21811       57.01508       65.58577
O         61.30897       57.12647       66.38930
O         62.12016       56.07149       64.63021
H         63.46668       61.57912       64.21594
H         61.44455       59.66944       64.77718
H         64.45179       59.71116       65.45391
H         63.64699       59.04939       64.01203
H         63.63984       57.94143       66.87310
H         64.35874       57.23712       65.41416
N         60.76666       59.84105       67.22602
C         60.39683       59.87503       68.62132
H         59.37674       59.45084       68.74661
H         61.10662       59.25826       69.21254
H         60.40022       60.91993       68.99270
H         60.08284       59.45006       66.55966
Ca        63.44528       56.27361       62.86631
O         60.63983       54.07956       61.23598
H         60.00260       54.66832       60.75846
H         60.06584       53.43684       61.72339
O         60.37627       56.99099       62.35360
H         60.84744       57.41968       61.59645
H         60.58291       57.56835       63.13034
O         62.44433       55.79239       59.34938
H         61.86394       56.58934       59.43951
H         62.57435       55.69018       58.37323

Ca 1.0



