%chk=apoCaM-CA-Ng.loop4.water5.frame625.chk
%nprocshared=20
%mem=10GB
%nosave
#b3lyp/svp scf=(tight,noincore,xqc) Test 
#IOP(5/87=12) Density=Current Pop=(MK,readradii) iop(6/33=2) iop(6/42=6)

apoCaM-CA-Ng.loop4.water5.frame625 

   -3  1 
C         97.11367       43.95554      -12.23357
C         98.35382       44.27158      -13.01240
O         98.47262       43.82028      -14.14274
H         96.42932       43.31365      -12.82981
H         97.38589       43.41797      -11.30167
H         96.58457       44.89681      -11.97693
N         99.32567       45.06064      -12.46408
C        100.56497       45.42091      -13.14836
C        100.22424       46.18256      -14.40812
O        100.50010       45.69892      -15.49930
C        101.43808       44.17229      -13.43091
C        101.78222       43.44195      -12.16761
O        103.06745       43.30423      -11.79035
O        100.89656       42.95792      -11.48373
H         99.17879       45.43246      -11.51324
H        101.16475       46.09275      -12.49412
H        102.37965       44.49942      -13.92430
H        100.92632       43.46478      -14.11625
N         99.57918       47.38374      -14.32256
C         99.06522       48.07669      -15.49959
C         99.85365       49.34967      -15.76005
O        100.46867       49.85305      -14.82966
C         97.51377       48.29178      -15.36628
C         97.05376       49.39065      -14.36398
C         96.85370       46.96238      -14.95048
C         97.24053       50.83241      -14.85335
H         99.40936       47.79392      -13.39153
H         99.21499       47.41417      -16.36886
H         97.09005       48.55701      -16.35474
H         97.52883       49.24780      -13.37056
H         95.95414       49.29075      -14.22658
H         97.14107       46.68406      -13.91532
H         95.74630       47.04872      -14.98072
H         97.16588       46.14193      -15.62446
H         98.29448       51.13184      -14.96192
H         96.72204       50.97408      -15.82612
H         96.78951       51.52884      -14.11566
N         99.89029       49.97149      -16.97641
C         99.35231       49.41160      -18.21029
C        100.11352       48.16127      -18.62669
O         99.47760       47.17239      -18.96105
C         99.28589       50.45169      -19.36244
C        100.54667       51.14831      -19.81877
O        101.73410       50.96394      -19.21948
O        100.47647       51.93531      -20.74875
H        100.37486       50.88050      -17.02918
H         98.28703       49.14173      -18.06950
H         98.57602       51.25037      -19.05554
H         98.84679       49.93708      -20.24646
N        101.47538       48.11943      -18.60219
C        102.25330       47.00298      -19.10174
C        102.09002       46.90124      -20.59674
O        102.32655       47.88712      -21.28213
H        102.00094       48.91061      -18.21275
H        101.97057       46.06372      -18.57786
H        103.32865       47.19800      -18.89858
N        101.70653       45.73349      -21.18155
C        101.53890       45.60646      -22.62763
C        100.35766       46.40734      -23.17476
O        100.23294       46.48998      -24.38914
C        101.41110       44.11876      -23.04151
C        100.26362       43.35806      -22.41384
O         99.43956       43.93083      -21.51346
O        100.09114       42.18796      -22.71383
H        101.58254       44.90592      -20.57920
H        102.46438       45.99384      -23.11017
H        102.35033       43.59471      -22.76276
H        101.31090       44.06457      -24.14809
N         99.42374       46.98038      -22.35910
C         98.24080       47.67602      -22.84527
C         97.24371       46.77191      -23.55781
O         96.21252       47.28005      -23.97233
H         99.53269       46.91707      -21.34328
H         98.55060       48.50743      -23.51524
H         97.70918       48.12071      -21.97515
N         97.47075       45.43391      -23.73727
C         96.59706       44.50599      -24.44331
C         95.31087       44.19421      -23.69624
O         94.52106       43.42496      -24.22628
C         96.36217       44.94714      -25.90642
C         97.70308       45.12745      -26.64441
C         97.55606       45.42435      -28.11475
N         98.66382       45.59333      -28.87307
O         96.45110       45.50581      -28.63158
H         98.33349       45.01673      -23.38868
H         97.12380       43.52584      -24.49919
H         95.77306       45.88672      -25.95854
H         95.77959       44.15071      -26.41935
H         98.29885       44.19426      -26.54621
H         98.27033       45.96125      -26.17929
H         99.60263       45.52605      -28.45204
H         98.58579       45.78836      -29.88192
N         95.05727       44.67661      -22.44230
C         93.86506       44.31431      -21.68013
C         94.21183       43.54850      -20.40021
O         93.27894       43.15444      -19.71287
C         92.99918       45.57683      -21.38798
C         93.70875       46.60769      -20.49664
C         92.55001       46.24542      -22.69603
H         95.73623       45.30205      -21.98999
H         93.22648       43.62284      -22.27207
H         92.08026       45.24925      -20.85223
H         93.03132       47.46339      -20.28852
H         93.97079       46.14730      -19.52643
H         94.62665       47.00656      -20.97634
H         93.42267       46.61654      -23.27475
H         91.98622       45.52218      -23.32239
H         91.88238       47.10653      -22.47828
N         95.50176       43.30388      -20.00154
C         95.83483       42.62164      -18.74795
C         96.77628       41.44615      -18.96486
O         97.26624       41.24994      -20.06956
C         96.53433       43.62626      -17.81219
C         95.66048       44.81923      -17.53275
N         96.04167       46.05811      -17.92367
O         94.59902       44.66704      -16.94680
H         96.28884       43.65391      -20.56607
H         94.91500       42.23998      -18.25255
H         97.48181       43.95737      -18.29401
H         96.79770       43.15068      -16.84295
H         96.93089       46.20719      -18.42170
H         95.44595       46.87512      -17.72501
N         97.09492       40.63259      -17.91262
C         98.13140       39.59949      -17.97932
C         98.03966       38.62135      -16.79821
O         97.28622       38.84851      -15.86109
C         99.50453       40.33182      -18.00472
C        100.73655       39.45878      -17.98103
C        101.61438       39.52598      -16.88411
C        101.03190       38.58545      -19.04051
C        102.75468       38.72260      -16.83664
C        102.17650       37.78018      -18.99056
C        103.03875       37.84355      -17.88922
O        104.13499       37.05931      -17.85311
H         96.60188       40.79412      -17.02166
H         97.96500       38.98871      -18.89443
H         99.52271       40.99598      -17.11135
H         99.56800       40.98977      -18.89680
H        101.41476       40.19774      -16.05872
H        100.37314       38.52319      -19.89715
H        103.41485       38.78389      -15.98024
H        102.39315       37.10430      -19.80776
H        104.75293       37.07415      -17.10776
N         98.76103       37.46264      -16.82438
C         98.73905       36.43914      -15.78997
C        100.17126       36.21956      -15.29681
O        100.78886       35.24617      -15.70777
C         98.11426       35.15514      -16.38913
C         97.96812       34.02722      -15.34987
C         97.27675       32.83462      -15.94549
O         96.02020       32.94842      -16.41706
O         97.84198       31.75352      -15.99057
H         99.33626       37.25670      -17.65113
H         98.07342       36.72089      -14.95372
H         98.71863       34.79609      -17.25217
H         97.10012       35.41591      -16.76522
H         97.36877       34.38458      -14.48556
H         98.96649       33.71830      -14.97404
N        100.81988       37.07715      -14.45195
C        100.22953       38.25805      -13.81637
C         99.07683       37.88555      -12.89998
O         98.88630       36.71289      -12.60252
C        101.31932       39.06103      -13.04189
C        101.95874       38.27817      -11.86766
C        103.26611       38.89078      -11.42517
O        104.30761       38.30680      -11.68011
O        103.33458       40.04612      -10.73645
H        101.81015       36.86023      -14.26629
H         99.83748       38.90609      -14.62747
H        100.91793       40.02720      -12.66539
H        102.11308       39.29828      -13.78337
H        102.20731       37.25598      -12.21064
H        101.25446       38.16473      -11.01588
N         98.23365       38.84813      -12.44281
C         97.08912       38.53349      -11.61488
H         96.40652       37.84564      -12.15858
H         97.42189       38.05286      -10.67059
H         96.53274       39.46266      -11.36864
H         98.39136       39.83053      -12.71352
Ca       101.64181       41.04763       -9.65481
O        103.31904       39.88263       -7.36015
H        103.95841       40.45358       -6.86469
H        102.73213       39.50033       -6.66045
O         98.95849       40.28019       -9.92974
H         98.29083       40.80347       -9.42178
H         99.19455       40.86131      -10.69594
O        102.40774       43.38343       -6.81595
H        101.96137       42.97777       -6.03075
H        103.25794       43.74284       -6.45779
O         99.99505       41.21594       -7.05981
H         99.55196       41.77320       -6.37200
H         99.53579       40.34053       -7.00624
O        104.90205       42.21601       -9.09613
H        105.58448       42.76532       -8.63500
H        105.35964       41.35767       -9.28173

Ca 1.0



