%chk=apoCaM-CA-Ng.loop2.water2.frame914.chk
%nprocshared=20
%mem=10GB
%nosave
#b3lyp/svp scf=(tight,noincore,xqc) Test 
#IOP(5/87=12) Density=Current Pop=(MK,readradii) iop(6/33=2) iop(6/42=6)

apoCaM-CA-Ng.loop2.water2.frame914 

   -2  1 
C          7.42759       18.96309       24.73876
C          8.87527       18.76522       24.40352
O          9.32556       19.30417       23.40271
H          6.79650       18.59174       23.90612
H          7.14919       18.42477       25.66919
H          7.23376       20.04631       24.89144
N          9.67860       18.03230       25.22385
C         11.10878       17.87217       25.01038
C         11.80002       18.63628       26.11764
O         12.53592       18.06158       26.90841
C         11.44991       16.36559       24.96940
C         12.90053       16.10763       24.66719
O         13.66329       15.42752       25.54455
O         13.38825       16.49399       23.61690
H          9.27323       17.61728       26.07789
H         11.42233       18.32684       24.04502
H         10.84465       15.87801       24.17506
H         11.18085       15.89636       25.94199
N         11.54405       19.97129       26.24787
C         12.05848       20.77567       27.34424
C         11.51518       20.22047       28.65207
O         10.30041       20.19009       28.79800
C         11.61753       22.23765       27.18698
H         10.92871       20.42145       25.55248
H         13.16255       20.75538       27.29279
H         12.00499       22.65014       26.23141
H         10.50808       22.31581       27.17865
H         12.01017       22.85356       28.02336
N         12.30102       19.70146       29.63912
C         13.76537       19.67181       29.62055
C         14.31530       18.64974       30.61238
O         13.56448       18.07991       31.39125
C         14.34480       21.09261       29.87097
C         13.88956       21.62823       31.19765
O         12.57103       21.70799       31.44177
O         14.69541       21.95011       32.05148
H         11.80219       19.28367       30.43985
H         14.09375       19.28817       28.63319
H         13.99509       21.79769       29.09231
H         15.45472       21.07180       29.82597
N         15.62987       18.29895       30.55827
C         16.20733       17.23417       31.36403
C         17.50251       17.68010       31.99333
O         18.53686       17.16835       31.58894
H         16.23084       18.74121       29.84553
H         16.43901       16.39824       30.66799
H         15.50881       16.83747       32.12965
N         17.58480       18.63852       32.95649
C         16.45105       19.29411       33.59668
C         15.79837       18.32624       34.57685
O         16.50014       17.80191       35.43150
C         16.97021       20.55733       34.32349
C         15.90951       21.50590       34.81877
N         16.28338       22.66079       35.41299
O         14.72333       21.26634       34.66055
H         18.53479       18.91694       33.25282
H         15.74545       19.64991       32.81925
H         17.57288       21.14201       33.59425
H         17.63268       20.26526       35.16711
H         17.27937       22.88841       35.53943
H         15.58212       23.33626       35.73951
N         14.46271       18.05433       34.53070
C         13.80788       17.12305       35.44499
C         13.19058       17.80319       36.65402
O         12.65981       17.10137       37.50265
H         13.87921       18.56091       33.85321
H         14.54504       16.38492       35.82938
H         13.04093       16.54330       34.88789
N         13.26587       19.15178       36.82846
C         12.83153       19.85904       38.02465
C         11.78439       20.90914       37.68990
O         12.00667       21.74078       36.82276
C         14.05594       20.52785       38.70761
C         14.97619       19.48891       39.34536
O         14.81790       21.27069       37.79327
H         13.70476       19.71883       36.09981
H         12.39070       19.16340       38.77194
H         13.70803       21.18423       39.54004
H         14.30395       22.08309       37.57563
H         15.82351       20.00418       39.84715
H         14.42221       18.90497       40.11070
H         15.38336       18.79766       38.57816
N         10.62744       20.95956       38.40840
C          9.63943       22.03093       38.28073
C         10.31220       23.34609       38.66207
O         10.79803       23.45583       39.77934
C          8.40636       21.71577       39.19083
C          7.38320       22.87512       39.32389
C          7.70119       20.42957       38.70726
C          6.73417       23.31897       38.01759
H         10.47910       20.23633       39.12786
H          9.28540       22.08264       37.22873
H          8.77831       21.53057       40.22372
H          7.88325       23.75677       39.77883
H          6.57779       22.55998       40.02335
H          7.33364       20.54249       37.66595
H          8.38534       19.55738       38.72112
H          6.84287       20.18604       39.36771
H          6.01962       24.14401       38.22155
H          7.51531       23.69307       37.33749
H          6.17349       22.49317       37.53483
N         10.40070       24.37230       37.76249
C         11.11669       25.62139       38.02686
C         10.21685       26.84048       37.99468
O         10.72281       27.91753       38.28919
C         12.19218       25.84203       36.94366
C         13.16821       24.72003       36.86903
O         13.96171       24.44983       37.92159
O         13.26112       24.06455       35.84376
H          9.97281       24.25070       36.83525
H         11.59511       25.58542       39.03066
H         12.76273       26.77587       37.14210
H         11.68782       25.95045       35.95596
N          8.91808       26.79321       37.57838
C          8.12825       28.00546       37.41942
C          6.81582       27.71097       36.69246
O          6.02802       26.92826       37.20910
C          7.81237       28.66325       38.78480
C          7.12071       29.98661       38.56354
C          5.76617       30.14935       38.89344
C          7.82428       31.06210       37.99153
C          5.12185       31.36346       38.63723
C          7.17820       32.27545       37.74316
C          5.82636       32.42463       38.06123
H          8.50917       25.89748       37.27928
H          8.73979       28.71206       36.82339
H          8.72332       28.84926       39.39057
H          7.17097       27.96639       39.36815
H          5.20466       29.33171       39.32736
H          8.87077       30.95798       37.73118
H          4.07374       31.47913       38.87885
H          7.72438       33.09681       37.29722
H          5.32471       33.36186       37.85957
N          6.47538       28.33203       35.51934
C          5.16841       28.21091       34.88653
C          5.00877       26.95475       34.03846
O          3.96971       26.81612       33.40865
C          5.10581       29.47530       34.02120
C          6.53958       29.60129       33.54951
C          7.30505       29.30697       34.83267
H          4.34214       28.25606       35.63013
H          4.33331       29.47027       33.22351
H          4.90903       30.34534       34.69013
H          6.72908       28.77686       32.82510
H          6.80991       30.56592       33.07029
H          8.31809       28.92460       34.58042
H          7.37801       30.21503       35.46557
N          5.98692       26.01111       33.94786
C          5.89224       24.84652       33.06558
C          4.75925       23.88508       33.39876
O          4.53426       22.97531       32.61114
C          7.24382       24.11245       33.04083
C          7.62540       23.48697       34.39897
C          9.08697       23.18473       34.39050
O          9.88095       24.09824       34.24037
O          9.55346       21.93294       34.47987
H          6.86284       26.16731       34.46369
H          5.71090       25.23487       32.03826
H          7.99588       24.88018       32.75087
H          7.26305       23.32156       32.25798
H          7.01316       22.57653       34.58419
H          7.45325       24.19937       35.22308
N          4.00242       24.00328       34.52568
C          2.90392       23.10234       34.79996
H          2.14056       23.18487       33.99615
H          3.27136       22.05558       34.85404
H          2.42830       23.36641       35.76778
H          4.19979       24.74129       35.21530
Ca        11.53480       21.81080       33.43031
O         11.84598       25.07775       32.43926
H         11.77210       25.94550       32.91078
H         10.94993       24.93511       32.04176
O         11.34053       18.96602       34.04844
H         10.36158       19.10155       34.00982
H         11.65302       19.15501       33.12783

Ca 1.0



