%chk=apoCaM-CA-Ng.loop4.water5.frame707.chk
%nprocshared=20
%mem=10GB
%nosave
#b3lyp/svp scf=(tight,noincore,xqc) Test 
#IOP(5/87=12) Density=Current Pop=(MK,readradii) iop(6/33=2) iop(6/42=6)

apoCaM-CA-Ng.loop4.water5.frame707 

   -3  1 
C        110.73956       75.03528       -4.69101
C        111.08560       73.62545       -4.31039
O        110.73102       72.70629       -5.03429
H        110.13047       75.50064       -3.89250
H        111.66839       75.62845       -4.82003
H        110.16655       75.06382       -5.64106
N        111.80585       73.38855       -3.17666
C        112.22648       72.06507       -2.72199
C        113.10202       71.40634       -3.77121
O        112.80435       70.31279       -4.23302
C        111.01785       71.19366       -2.31299
C        110.24822       71.76479       -1.15321
O        109.30209       71.14174       -0.70397
O        110.60207       72.93262       -0.57986
H        112.09909       74.19912       -2.60941
H        112.86086       72.18907       -1.81564
H        111.39053       70.19561       -1.99657
H        110.32882       71.04931       -3.17213
N        114.20911       72.06266       -4.21165
C        115.08574       71.53750       -5.25897
C        115.87864       70.32895       -4.73344
O        115.95170       70.18403       -3.52054
C        116.01008       72.67835       -5.80701
C        117.03359       73.17082       -4.74508
C        115.14182       73.83311       -6.35981
C        118.00038       74.23251       -5.27287
H        114.38589       72.99525       -3.81329
H        114.42776       71.21681       -6.09357
H        116.58888       72.28882       -6.66232
H        117.64965       72.30654       -4.41753
H        116.52235       73.58468       -3.85179
H        115.76115       74.59598       -6.87085
H        114.42138       73.44459       -7.11034
H        114.56724       74.34451       -5.55954
H        117.46625       75.16779       -5.53687
H        118.73859       74.48347       -4.48227
H        118.54601       73.85165       -6.16173
N        116.51487       69.40582       -5.52542
C        116.46010       69.33872       -6.98501
C        115.05663       69.02014       -7.48891
O        114.81545       69.19740       -8.67576
C        117.45341       68.26876       -7.49919
C        117.51509       68.18344       -9.00037
O        117.85971       69.15083       -9.66022
O        117.19307       67.03301       -9.62275
H        117.06319       68.67871       -5.03775
H        116.78533       70.31232       -7.39203
H        117.16103       67.27638       -7.09015
H        118.47362       68.50866       -7.12809
N        114.07210       68.56279       -6.65951
C        112.71137       68.36471       -7.12132
C        112.56398       67.23954       -8.11822
O        113.47830       66.44930       -8.31021
H        114.26424       68.39811       -5.66165
H        112.36187       69.31783       -7.57166
H        112.04742       68.12948       -6.26144
N        111.39522       67.13791       -8.80759
C        111.08059       66.07097       -9.74872
C        111.21436       66.51791      -11.20075
O        110.94184       65.70769      -12.07633
C        109.68964       65.47865       -9.39871
C        108.56498       66.48469       -9.35552
O        108.21975       67.08155      -10.35880
O        107.91441       66.71349       -8.19824
H        110.69316       67.88143       -8.67070
H        111.81185       65.23857       -9.65047
H        109.76527       65.02378       -8.38752
H        109.42512       64.66839      -10.11186
N        111.70298       67.74900      -11.54798
C        111.94065       68.14390      -12.93360
C        110.67688       68.31989      -13.75677
O        110.78638       68.62622      -14.93476
H        111.98384       68.41597      -10.81489
H        112.60249       67.39084      -13.41349
H        112.47444       69.11959      -12.94326
N        109.44536       68.18586      -13.19477
C        108.17373       68.40392      -13.86507
C        108.01123       69.84602      -14.29954
O        107.31900       70.11502      -15.27241
C        107.87945       67.36791      -14.96863
C        107.90904       65.93732      -14.40627
C        107.39127       64.94149      -15.41107
N        108.16483       63.92120      -15.84705
O        106.24495       65.04701      -15.82235
H        109.38021       67.96977      -12.19889
H        107.38343       68.26510      -13.09263
H        108.59718       67.46011      -15.81246
H        106.85736       67.57438      -15.35607
H        107.25550       65.87456      -13.50944
H        108.94679       65.68575      -14.09677
H        109.13098       63.80526      -15.50974
H        107.79071       63.23889      -16.52350
N        108.55736       70.83798      -13.54188
C        108.28922       72.25398      -13.73841
C        107.70161       72.88140      -12.47551
O        107.31436       74.03857      -12.55258
C        109.57452       73.00991      -14.18080
C        110.72431       72.87583      -13.16543
C        110.03854       72.53094      -15.56286
H        109.17968       70.57266      -12.76680
H        107.52473       72.38936      -14.53617
H        109.32673       74.09070      -14.27774
H        111.05791       71.82096      -13.07016
H        111.59656       73.47783      -13.49717
H        110.41280       73.24620      -12.16661
H        110.92451       73.11439      -15.89301
H        110.30873       71.45421      -15.54284
H        109.23020       72.68421      -16.30967
N        107.64266       72.21643      -11.27437
C        107.16165       72.83936      -10.04846
C        106.10517       71.96010       -9.37871
O        105.78958       70.89642       -9.89269
C        108.38032       73.10881       -9.14117
C        108.10987       74.15525       -8.09109
N        107.80557       75.42538       -8.45664
O        108.18246       73.86383       -6.90775
H        108.01122       71.26341      -11.17840
H        106.68926       73.81274      -10.29718
H        109.20903       73.51963       -9.75823
H        108.72947       72.15101       -8.69674
H        107.76130       75.69341       -9.45179
H        107.62784       76.15113       -7.74736
N        105.46847       72.38766       -8.25184
C        104.29611       71.70292       -7.70435
C        103.44376       72.66719       -6.89193
O        103.86481       73.79152       -6.65938
C        104.63972       70.42478       -6.89254
C        105.08634       70.69588       -5.46682
C        106.35086       71.22973       -5.16386
C        104.19625       70.41154       -4.41183
C        106.71086       71.47188       -3.82820
C        104.55098       70.66568       -3.08950
C        105.80427       71.19306       -2.79058
O        106.11885       71.42314       -1.50275
H        105.72539       73.31458       -7.89787
H        103.66896       71.40428       -8.57365
H        105.35784       69.76347       -7.42349
H        103.69175       69.84690       -6.83450
H        107.05734       71.44792       -5.95388
H        103.21239       70.00579       -4.60966
H        107.68973       71.87659       -3.59971
H        103.84767       70.45337       -2.29330
H        106.97485       71.77898       -1.24453
N        102.21160       72.29910       -6.43883
C        101.37420       73.22161       -5.68799
C        101.06881       72.64835       -4.32028
O        100.25700       71.73601       -4.25036
C        100.07129       73.51489       -6.45616
C        100.33790       74.24646       -7.77892
C         99.05292       74.50904       -8.50856
O         98.36013       73.57828       -8.88867
O         98.66125       75.77386       -8.75348
H        101.85271       71.35459       -6.64357
H        101.88482       74.18519       -5.57082
H         99.41730       74.16059       -5.82884
H         99.53734       72.55843       -6.65532
H        101.00326       73.64454       -8.43435
H        100.84030       75.21415       -7.55916
N        101.66459       73.07640       -3.16510
C        102.79079       74.01433       -3.05537
C        102.44731       75.42313       -3.52500
O        101.27844       75.74222       -3.69987
C        103.24547       74.01795       -1.57236
C        104.48376       74.84442       -1.18908
C        104.69738       74.73519        0.29860
O        103.80237       75.07067        1.05851
O        105.85275       74.28563        0.82492
H        101.34424       72.61070       -2.30002
H        103.61317       73.61727       -3.69144
H        103.45440       72.96474       -1.27988
H        102.38236       74.38091       -0.96997
H        104.32123       75.91655       -1.41637
H        105.37530       74.47917       -1.74184
N        103.44659       76.30778       -3.80370
C        103.19243       77.64667       -4.28901
H        102.59511       78.21544       -3.54618
H        104.15555       78.17796       -4.45145
H        102.64765       77.60393       -5.25607
H        104.42966       76.01671       -3.69305
Ca       107.79976       73.92275       -0.24206
O        106.78640       74.44417        3.48663
H        107.14581       75.31821        3.78057
H        105.81347       74.59868        3.38864
O        108.09571       71.74697        2.06873
H        107.45273       71.38038        2.72611
H        108.84376       71.09826        2.06436
O        107.29271       77.00554        0.41988
H        106.57157       76.86653        1.08370
H        106.87870       77.57130       -0.27909
O        109.92277       74.48471        2.44698
H        109.53025       74.45951        3.35532
H        110.87486       74.25127        2.58512
O        107.94457       75.24999       -2.69630
H        107.44238       76.04078       -2.37721
H        107.35204       74.82370       -3.36434

Ca 1.0



