%chk=apoCaM-CA-Ng.loop4.water3.frame961.chk
%nprocshared=20
%mem=10GB
%nosave
#b3lyp/svp scf=(tight,noincore,xqc) Test 
#IOP(5/87=12) Density=Current Pop=(MK,readradii) iop(6/33=2) iop(6/42=6)

apoCaM-CA-Ng.loop4.water3.frame961 

   -3  1 
C         85.73553       99.15086       47.08313
C         85.58146      100.42527       47.85812
O         84.85592      101.30164       47.41273
H         86.42856       98.44734       47.59190
H         84.74707       98.65809       46.97647
H         86.14464       99.37979       46.07715
N         86.24019      100.59389       49.03890
C         86.17871      101.79495       49.86246
C         84.74288      102.07436       50.29834
O         84.26828      103.18555       50.09561
C         86.75377      103.02603       49.11343
C         88.09149      102.86509       48.44966
O         88.49238      103.78133       47.74922
O         88.83525      101.74268       48.52831
H         86.83050       99.82258       49.38771
H         86.79765      101.61357       50.76996
H         86.79978      103.89372       49.80782
H         86.05235      103.29077       48.29348
N         83.98020      101.10896       50.89212
C         82.60055      101.35359       51.30961
C         82.55271      101.19151       52.82146
O         82.73353      100.06976       53.27539
C         81.60431      100.37396       50.60394
C         81.79094      100.28122       49.06590
C         80.14192      100.71859       50.94901
C         81.61023      101.59203       48.30661
H         84.39137      100.17787       51.06152
H         82.30565      102.37709       51.02165
H         81.80212       99.34697       50.98271
H         81.06857       99.54041       48.65856
H         82.80982       99.89671       48.84911
H         79.45215       99.98159       50.48610
H         79.97796      100.69657       52.04632
H         79.86539      101.72567       50.57654
H         80.59469      102.01497       48.44211
H         82.36515      102.31466       48.65045
H         81.77020      101.41832       47.22149
N         82.39240      102.22398       53.70224
C         82.25658      103.63872       53.35158
C         82.73487      104.52456       54.50462
O         82.77315      104.08170       55.64464
C         80.80278      103.91543       52.91705
C         80.48750      105.34522       52.61460
O         79.45675      105.92956       53.24724
O         81.10869      105.96249       51.76551
H         82.44980      101.96901       54.69992
H         82.96899      103.86275       52.52759
H         80.11475      103.56947       53.71800
H         80.57539      103.33580       52.00753
N         83.25881      105.75600       54.23766
C         83.96698      106.55415       55.22631
C         83.38544      107.92717       55.44486
O         84.03654      108.70143       56.13326
H         83.24791      106.11036       53.26931
H         85.00605      106.68299       54.85222
H         84.03197      106.04837       56.21323
N         82.17610      108.31365       54.94066
C         81.67692      109.67253       55.15452
C         80.17140      109.89064       54.98173
O         79.74261      110.97601       55.34557
C         82.49614      110.67440       54.29350
C         82.63767      110.25439       52.84718
O         81.66523      110.11128       52.12954
O         83.86308      110.02841       52.33651
H         81.62320      107.62648       54.41866
H         81.82014      109.91965       56.23066
H         83.52408      110.74092       54.70455
H         82.05615      111.69359       54.35745
N         79.29003      108.97124       54.48643
C         77.86087      109.25343       54.35813
C         77.55097      110.38166       53.37956
O         76.39960      110.77863       53.28134
H         79.61167      108.04951       54.19642
H         77.46473      109.51245       55.36307
H         77.32887      108.34147       54.00635
N         78.53126      110.91667       52.60023
C         78.39002      111.97986       51.61917
C         77.45600      111.59815       50.48910
O         76.82336      112.46534       49.90336
C         78.13508      113.35948       52.26620
C         79.25428      113.67894       53.27918
C         79.24682      115.08531       53.81528
N         80.19984      115.46032       54.70113
O         78.40571      115.89314       53.45010
H         79.46717      110.52130       52.66040
H         79.38076      112.07109       51.11825
H         77.14323      113.39739       52.76730
H         78.15756      114.12409       51.45935
H         80.24188      113.52413       52.79289
H         79.16688      112.98680       54.13658
H         80.91775      114.78891       55.01439
H         80.22770      116.42142       55.07148
N         77.38608      110.29582       50.08975
C         76.65400      109.83434       48.91661
C         77.53930      108.98696       47.99118
O         77.04611      108.59349       46.94220
C         75.39286      109.03253       49.35186
C         75.73284      107.80877       50.22230
C         74.39918      109.93885       50.09438
H         77.87081      109.58836       50.65749
H         76.30614      110.70532       48.31779
H         74.87734      108.67106       48.43443
H         76.42452      107.12508       49.68777
H         76.19931      108.11371       51.18307
H         74.80688      107.24359       50.46045
H         73.47717      109.37293       50.34669
H         74.83900      110.33186       51.03466
H         74.10918      110.79667       49.45055
N         78.81663      108.61508       48.32188
C         79.62391      107.68807       47.53285
C         81.00854      108.26121       47.23753
O         81.42684      109.21092       47.88819
C         79.74538      106.38895       48.36077
C         80.67851      105.37239       47.76266
N         81.82114      105.04188       48.40827
O         80.41959      104.86454       46.68201
H         79.23126      108.92158       49.21120
H         79.12862      107.46271       46.56274
H         78.73905      105.93490       48.49618
H         80.12130      106.66600       49.36896
H         82.05827      105.46142       49.31915
H         82.48918      104.38649       47.98441
N         81.77431      107.71765       46.24185
C         83.13021      108.17255       45.93437
C         83.59056      107.69680       44.54972
O         82.99114      106.79681       43.97599
C         84.09771      107.67506       47.04335
C         85.49901      108.21679       46.91285
C         85.73213      109.59461       47.04360
C         86.58381      107.35710       46.66871
C         87.02529      110.10739       46.91747
C         87.87759      107.87240       46.53690
C         88.10277      109.24808       46.65872
O         89.35416      109.73256       46.52794
H         81.34487      106.98473       45.66000
H         83.09406      109.28307       45.88594
H         84.10843      106.56177       47.01066
H         83.72286      107.96619       48.04748
H         84.91066      110.27056       47.24366
H         86.42844      106.29071       46.57418
H         87.18701      111.17276       47.01970
H         88.70554      107.20239       46.33947
H         89.54931      110.67782       46.60295
N         84.62458      108.33056       43.92345
C         85.08891      108.02393       42.57358
C         86.59123      107.73328       42.60482
O         87.36453      108.58943       42.19569
C         84.78157      109.22030       41.64309
C         83.27456      109.45663       41.47227
C         83.02465      110.58825       40.51664
O         82.40788      110.39403       39.48111
O         83.47884      111.82454       40.79839
H         85.07700      109.12427       44.40084
H         84.55261      107.16280       42.13048
H         85.20462      108.99865       40.63699
H         85.26564      110.14225       42.03565
H         82.80722      109.70271       42.44891
H         82.80223      108.52933       41.07737
N         87.12063      106.56957       43.08597
C         86.33595      105.41888       43.52107
C         85.57116      104.77424       42.37166
O         85.75856      105.14961       41.22148
C         87.22289      104.36619       44.22657
C         88.38314      103.76456       43.39750
C         88.99332      102.66414       44.21584
O         90.20812      102.79262       44.78432
O         88.31417      101.68807       44.49508
H         88.14836      106.51414       43.13434
H         85.60098      105.76886       44.27426
H         86.55749      103.54582       44.57102
H         87.66523      104.82607       45.13629
H         89.14621      104.54229       43.18658
H         88.02900      103.34149       42.43316
N         84.66609      103.78851       42.62834
C         83.88668      103.15940       41.58501
H         83.25974      103.91926       41.07160
H         84.55687      102.66780       40.84899
H         83.21700      102.39038       42.02682
H         84.50722      103.48151       43.59945
Ca        90.16582      101.60941       46.70491
O         91.58762      100.00478       48.86945
H         92.50199       99.74234       49.14326
H         91.14602      100.28583       49.70998
O         93.35558      101.76978       46.11708
H         93.45345      101.57035       45.15211
H         93.39308      102.75780       46.17112
O         91.85325      103.46913       48.71196
H         90.95722      103.58110       49.11729
H         92.12435      104.38600       48.45508

Ca 1.0



