%chk=apoCaM-CA-Ng.loop3.water3.frame952.chk
%nprocshared=20
%mem=10GB
%nosave
#b3lyp/svp scf=(tight,noincore,xqc) Test 
#IOP(5/87=12) Density=Current Pop=(MK,readradii) iop(6/33=2) iop(6/42=6)

apoCaM-CA-Ng.loop3.water3.frame952 

   0  1 
C         86.94777      111.65146       39.71824
C         87.43611      113.05579       39.92117
O         86.71613      113.99732       39.62281
H         85.92781      111.64021       39.27990
H         87.64207      111.10009       39.05216
H         86.90968      111.13659       40.70392
N         88.65530      113.26104       40.48542
C         89.14144      114.57511       40.88219
C         89.41743      115.49224       39.69356
O         90.22756      115.15154       38.84365
C         90.38369      114.40765       41.77932
C         90.69729      115.63701       42.57065
O         91.70453      115.61423       43.46346
O         90.01736      116.64150       42.45436
H         89.20958      112.42818       40.74015
H         88.35967      115.02261       41.52009
H         91.26035      114.08733       41.17694
H         90.17321      113.62442       42.53683
N         88.75826      116.68251       39.58164
C         88.92147      117.61444       38.46142
C         90.20411      118.44412       38.56436
O         90.52092      119.14436       37.61314
C         87.68488      118.54469       38.39820
C         86.40587      117.72200       38.13991
C         85.12601      118.52855       38.37612
C         83.89441      117.63800       38.14149
N         82.66321      118.31749       38.53868
H         88.06942      116.91643       40.31135
H         88.95415      117.03091       37.51445
H         87.78602      119.30517       37.59254
H         87.60569      119.08143       39.36944
H         86.36111      116.86143       38.83875
H         86.43527      117.31889       37.10382
H         85.08632      119.41765       37.71062
H         85.12539      118.87612       39.43233
H         83.98529      116.70264       38.73893
H         83.84282      117.35832       37.06540
H         82.55032      119.21085       38.00842
H         81.84982      117.69163       38.33735
H         82.68544      118.51319       39.56648
N         90.96904      118.44138       39.69369
C         92.20891      119.19080       39.87027
C         93.36128      118.24595       40.21768
O         94.36276      118.26220       39.51470
C         92.03246      120.34664       40.90771
C         91.12849      120.08922       42.10421
O         90.16456      120.81269       42.29258
O         91.35888      119.06374       42.94217
H         90.64964      117.89312       40.49586
H         92.51355      119.69793       38.92536
H         91.57316      121.20149       40.36257
H         93.03762      120.69041       41.23880
N         93.29625      117.40902       41.28902
C         94.37801      116.55036       41.75119
C         94.82667      116.91541       43.16558
O         95.73744      116.27502       43.66832
H         92.43182      117.38068       41.82386
H         95.26104      116.62620       41.08071
H         94.02824      115.49542       41.73387
N         94.26072      117.95792       43.84620
C         94.70694      118.48493       45.12903
C         93.57493      118.51606       46.15143
O         92.51868      119.04944       45.85558
C         95.15043      119.94469       44.90326
C         96.27637      120.05844       43.91039
N         97.48747      119.51902       44.17484
O         96.09493      120.65593       42.85967
H         93.51599      118.49109       43.40182
H         95.56527      117.90453       45.53210
H         95.47130      120.40057       45.86408
H         94.27937      120.52589       44.52206
H         97.66147      119.02537       45.06200
H         98.25719      119.60801       43.49565
N         93.77365      118.07206       47.42299
C         92.80356      118.24979       48.49852
C         91.56622      117.40260       48.32826
O         91.71486      116.19765       48.17795
H         94.69161      117.67302       47.67109
H         92.54822      119.32668       48.60795
H         93.28286      117.92593       49.44768
N         90.30728      117.93940       48.43499
C         89.10844      117.09953       48.39976
C         88.75737      116.63585       46.95057
O         89.90521      116.36544       46.20188
C         87.86505      117.82144       49.00122
C         87.90671      118.19978       50.46543
C         87.41738      119.45651       50.86316
C         88.31332      117.28447       51.45549
C         87.32450      119.78737       52.21824
C         88.23893      117.62702       52.81071
C         87.73385      118.87239       53.19732
O         87.63066      119.17147       54.50840
H         90.21120      118.94253       48.65567
H         89.31009      116.19855       49.01925
H         86.99463      117.14629       48.96316
H         87.59890      118.69929       48.37414
H         87.06536      120.16803       50.12682
H         88.67595      116.30094       51.19100
H         86.91701      120.74855       52.50575
H         88.55293      116.91425       53.56340
H         87.25307      120.00761       54.81767
N         87.88732      115.43613       46.99980
C         87.27778      114.93703       45.74689
C         86.92248      116.04275       44.76245
O         87.81133      116.72091       44.27030
C         88.14469      113.82349       45.09710
C         87.46474      113.19832       43.84314
C         88.48881      112.72325       46.11935
C         86.12452      112.49228       44.08121
H         87.10513      115.57346       47.67048
H         86.33496      114.42806       46.04663
H         89.10403      114.27455       44.76395
H         88.16137      112.46167       43.38816
H         87.28049      113.99157       43.09849
H         89.06824      113.14269       46.96809
H         87.57061      112.25498       46.53187
H         89.11105      111.93594       45.64341
H         86.23505      111.63841       44.77884
H         85.35840      113.19159       44.46980
H         85.74867      112.09610       43.11410
N         85.62987      116.23979       44.38382
C         85.25696      117.16919       43.32499
C         83.84154      117.70361       43.46607
O         83.37627      118.34917       42.53916
C         85.44336      116.47932       41.96796
O         84.61105      115.35732       41.87178
H         84.91854      115.58505       44.74220
H         85.91900      118.05827       43.34357
H         86.49930      116.16919       41.87211
H         85.21314      117.20157       41.15475
H         84.67455      115.05098       40.93065
N         83.11771      117.53659       44.61193
C         81.76043      118.03664       44.76459
C         81.74283      119.20872       45.73174
O         82.71882      119.39298       46.44435
C         80.89366      116.89170       45.28801
H         83.54329      117.08575       45.43215
H         81.36887      118.38115       43.78863
H         79.87600      117.23613       45.48692
H         80.86382      116.05918       44.55329
H         81.29670      116.50668       46.24954
N         80.69534      120.08385       45.82673
C         79.55293      120.14719       44.91649
C         78.39685      120.88667       45.57737
O         78.62022      121.99460       46.04790
C         79.94448      120.92342       43.64985
H         80.80785      120.85692       46.50229
H         79.24166      119.13993       44.59649
H         80.26236      121.95794       43.90233
H         80.77665      120.43089       43.10991
H         79.07477      120.97866       42.95876
N         77.11520      120.41799       45.61704
C         76.64728      119.16352       45.03715
C         77.12885      117.97404       45.83835
O         77.59044      117.01562       45.23718
C         75.10840      119.16838       44.93431
C         74.58397      117.92882       44.18930
C         73.11323      118.04511       43.91706
O         72.24011      118.15857       44.93530
O         72.70200      118.03699       42.76727
H         76.40742      121.04193       46.03744
H         77.00344      119.09496       43.98406
H         74.82142      120.06857       44.34543
H         74.64016      119.24279       45.94052
H         74.77385      117.01252       44.78794
H         75.11910      117.83020       43.21820
N         77.03744      117.96301       47.19822
C         77.50995      116.86742       48.02214
H         78.30843      117.23748       48.70008
H         76.67197      116.47655       48.63517
H         77.92823      116.03214       47.42159
H         76.63938      118.78161       47.68240
Ca        90.22078      118.09743       44.68697
O         88.07236      120.01208       45.68902
H         87.10686      119.84823       45.83403
H         88.40986      120.31519       46.56916
O         90.97340      121.46384       45.15273
H         90.85754      121.36185       46.13063
H         91.95380      121.45101       45.01487
O         87.91591      119.25971       42.49975
H         87.26502      119.90761       42.13048
H         88.43583      118.95440       41.71544

Ca 1.0



