%chk=apoCaM-CA-Ng.loop1.water4.frame292.chk
%nprocshared=20
%mem=10GB
%nosave
#b3lyp/svp scf=(tight,noincore,xqc) Test 
#IOP(5/87=12) Density=Current Pop=(MK,readradii) iop(6/33=2) iop(6/42=6)

apoCaM-CA-Ng.loop1.water4.frame292 

   0  1 
C         77.78805       49.37074       34.60870
C         77.26102       50.76294       34.79949
O         77.28746       51.55565       33.86894
H         78.61544       49.18440       35.32563
H         76.97570       48.63698       34.79982
H         78.16589       49.22451       33.57531
N         76.74415       51.12069       36.00481
C         76.16797       52.43233       36.28546
C         77.21617       53.54507       36.40540
O         76.81914       54.63546       36.76619
C         75.33026       52.38087       37.59106
C         74.14700       51.44818       37.48859
O         74.32269       50.12514       37.31049
O         73.01283       51.89072       37.58488
H         76.71656       50.39907       36.74173
H         75.45028       52.70383       35.48299
H         74.92262       53.39612       37.79349
H         75.96679       52.08836       38.45337
N         78.54695       53.38314       36.14565
C         79.54331       54.42999       36.39967
C         80.23930       54.90064       35.13325
O         80.59834       54.04780       34.33343
C         80.62086       53.86625       37.33858
C         80.10018       53.67261       38.76347
C         81.22927       53.15980       39.66040
C         80.79412       53.10693       41.12638
N         81.88283       52.61273       41.96774
H         78.89449       52.48066       35.79635
H         79.08998       55.30107       36.89390
H         81.46523       54.58302       37.39557
H         81.02329       52.91373       36.92648
H         79.24675       52.96024       38.77947
H         79.75078       54.65825       39.14400
H         82.10329       53.84430       39.58200
H         81.53718       52.14784       39.31622
H         79.90911       52.44228       41.23490
H         80.51060       54.13116       41.45901
H         82.13322       51.63601       41.68969
H         82.72157       53.23111       41.87269
H         81.57275       52.61461       42.96576
N         80.61360       56.20721       34.90471
C         80.35116       57.40081       35.72843
C         80.79968       57.24164       37.17398
O         79.96659       57.28043       38.06843
C         78.88783       57.86538       35.60209
C         78.54611       58.24064       34.19219
O         79.45688       58.12391       33.20770
O         77.41718       58.60987       33.92409
H         81.17916       56.37622       34.05767
H         80.93831       58.25248       35.31793
H         78.72035       58.76332       36.23354
H         78.20293       57.06761       35.93418
N         82.10568       57.08992       37.51700
C         83.19352       57.15032       36.55308
C         84.54884       56.95722       37.19595
O         84.61758       56.58049       38.35766
H         82.31256       56.97640       38.52101
H         83.16479       58.13134       36.06627
H         83.07048       56.36895       35.77527
N         85.70792       57.13854       36.50638
C         85.80731       57.67706       35.15188
C         85.56442       59.18468       35.13153
O         86.16916       59.89402       35.92473
C         87.19254       57.36813       34.52686
C         88.38052       58.01673       35.19950
O         88.71748       57.70843       36.46592
O         89.07361       58.80427       34.57585
H         86.57190       56.86838       36.99445
H         85.08504       57.15030       34.48914
H         87.16269       57.70937       33.46732
H         87.34728       56.26769       34.51525
N         84.78009       59.75425       34.17049
C         84.68004       61.19862       33.99217
C         83.78610       61.91020       34.98688
O         83.70586       63.12740       34.90576
H         84.34609       59.14822       33.45814
H         84.24694       61.40689       32.98952
H         85.70145       61.63870       34.00555
N         83.02753       61.23286       35.89359
C         82.05326       61.87103       36.77419
C         82.35528       61.51786       38.22499
O         83.23562       60.70283       38.46609
C         80.63626       61.37586       36.37346
C         80.35887       61.57744       34.87523
O         79.65695       62.05672       37.11132
H         83.07936       60.21333       35.91916
H         82.09649       62.97628       36.66215
H         80.58434       60.28632       36.59731
H         78.80877       61.55369       36.99760
H         79.34433       61.20152       34.62532
H         80.42075       62.65357       34.61033
H         81.08230       61.00659       34.25513
N         81.64375       62.08350       39.24634
C         81.82978       61.71816       40.65015
C         80.58298       61.01397       41.19169
O         80.71013       60.31990       42.19182
C         82.24510       62.97102       41.48121
C         83.49465       63.68191       40.88793
C         82.46668       62.65545       42.97293
C         84.78138       62.84802       40.88129
H         80.94167       62.80191       39.02214
H         82.63933       60.96185       40.72820
H         81.41011       63.70496       41.42569
H         83.68939       64.60913       41.46994
H         83.27848       63.99555       39.84417
H         82.76568       63.57676       43.51736
H         81.53220       62.29400       43.44665
H         83.25279       61.88469       43.11079
H         85.60281       63.44849       40.43695
H         85.08419       62.56691       41.90995
H         84.66707       61.93158       40.27112
N         79.36367       61.09540       40.57417
C         78.19948       60.31196       40.98157
C         77.72779       59.45741       39.81274
O         78.16028       59.66409       38.68713
C         77.07850       61.24507       41.50334
C         77.50556       61.94003       42.79906
O         75.90598       60.51882       41.77374
H         79.23604       61.71833       39.76631
H         78.47724       59.60545       41.79495
H         76.87106       62.03569       40.74182
H         75.31794       60.60233       40.97706
H         78.42127       62.54788       42.64644
H         76.69269       62.60791       43.15511
H         77.70448       61.18192       43.58848
N         76.89342       58.40581       40.03783
C         76.49532       57.47185       38.98748
C         75.54849       58.09432       37.96637
O         74.87692       59.06852       38.27541
C         75.86815       56.19067       39.59870
C         74.55988       56.45135       40.36536
O         76.80640       55.59264       40.45765
H         76.62828       58.21161       41.01397
H         77.42025       57.15264       38.46008
H         75.64042       55.49531       38.76432
H         76.53760       54.64339       40.56969
H         73.79467       56.89855       39.69852
H         74.15922       55.49084       40.75219
H         74.71492       57.12575       41.23159
N         75.43450       57.53892       36.72272
C         74.45232       57.94351       35.72366
C         74.75392       57.38885       34.32301
O         74.68617       58.17655       33.39170
C         73.01857       57.59364       36.17187
C         72.80118       56.11062       36.53648
C         71.34486       55.82758       36.94083
C         70.38537       55.87438       35.73738
N         69.00436       55.64350       36.15566
H         76.07282       56.78158       36.48230
H         74.48833       59.05178       35.61676
H         72.33648       57.91297       35.35918
H         72.76606       58.19720       37.07033
H         73.45277       55.87468       37.40513
H         73.07650       55.43244       35.70431
H         71.03112       56.55139       37.72515
H         71.29153       54.80581       37.37625
H         70.68707       55.08872       35.00826
H         70.43176       56.85601       35.22445
H         68.69373       56.41684       36.78793
H         68.39033       55.63459       35.30909
H         68.91927       54.72534       36.64826
N         75.11926       56.09088       34.08243
C         75.43656       55.57468       32.74468
C         74.58476       54.36208       32.43826
O         74.63572       53.39178       33.18029
C         76.93876       55.22497       32.64986
C         77.37271       54.54964       31.32459
C         77.00531       55.26929       30.04128
O         76.29100       54.70283       29.22963
O         77.48971       56.48990       29.72993
H         75.21658       55.44285       34.87623
H         75.25181       56.34694       31.96796
H         77.21608       54.53562       33.47771
H         77.51594       56.15328       32.79453
H         76.91155       53.53817       31.29338
H         78.47409       54.40333       31.34717
N         73.81006       54.33704       31.31776
C         73.01956       53.19118       30.91816
H         71.95468       53.48964       30.83522
H         73.37249       52.83442       29.92716
H         73.09752       52.34901       31.63735
H         73.79574       55.15826       30.69449
Ca        78.65531       57.74117       31.16957
O         75.85034       58.77677       30.69702
H         74.89714       58.96303       30.88470
H         76.32691       59.07128       31.51273
O         81.54254       59.52348       31.31897
H         81.89389       59.09345       32.13879
H         82.05971       60.36391       31.23873
O         78.57646       61.07053       31.25664
H         77.94357       61.13363       32.01549
H         79.28068       61.73460       31.46521
O         77.64820       59.40640       28.30507
H         76.80547       59.05558       27.92107
H         78.31754       59.28700       27.58548

Ca 1.0



