%chk=apoCaM-CA-Ng.loop3.water3.frame858.chk
%nprocshared=20
%mem=10GB
%nosave
#b3lyp/svp scf=(tight,noincore,xqc) Test 
#IOP(5/87=12) Density=Current Pop=(MK,readradii) iop(6/33=2) iop(6/42=6)

apoCaM-CA-Ng.loop3.water3.frame858 

   0  1 
C         77.12580       71.10673       82.93034
C         78.18687       72.09777       82.56260
O         79.05535       71.77242       81.76610
H         76.13076       71.50802       82.64471
H         77.28719       70.14397       82.39920
H         77.14955       70.92239       84.02412
N         78.16973       73.35007       83.10090
C         79.14821       74.37480       82.73815
C         80.55344       73.93908       83.17130
O         80.67040       72.96753       83.90657
C         78.69426       75.73779       83.33257
C         79.23888       76.98352       82.67738
O         78.88669       78.07573       83.09046
O         80.03140       76.92317       81.59560
H         77.40408       73.58515       83.75211
H         79.11855       74.46100       81.64137
H         78.89288       75.74211       84.42572
H         77.59504       75.82791       83.18796
N         81.66848       74.58072       82.72321
C         83.02997       74.18243       83.05350
C         83.68457       75.27632       83.87669
O         84.16050       74.97629       84.96282
C         83.79295       73.84753       81.75514
C         85.18091       73.25111       82.04249
C         85.85933       72.75134       80.75921
C         87.21521       72.10181       81.07606
N         87.84335       71.57159       79.86608
H         81.56811       75.36958       82.08389
H         83.02477       73.25273       83.66603
H         83.88150       74.74394       81.10276
H         83.19850       73.08020       81.20989
H         85.05995       72.38258       82.72711
H         85.82201       74.01113       82.53939
H         86.00477       73.59806       80.05352
H         85.20511       71.99220       80.27579
H         87.06741       71.26811       81.79891
H         87.88848       72.85452       81.54291
H         88.00872       72.34060       79.17723
H         88.76129       71.13895       80.11913
H         87.23390       70.83722       79.43737
N         83.66467       76.58054       83.46840
C         84.15187       77.68092       84.29879
C         83.00312       78.43504       84.97190
O         83.27283       79.38372       85.69560
C         85.10941       78.59232       83.50117
C         84.48672       79.36001       82.36555
O         85.18570       80.09352       81.68566
O         83.17383       79.26984       82.09442
H         83.19826       76.81292       82.58051
H         84.75611       77.27671       85.14041
H         85.93083       77.96239       83.09564
H         85.55880       79.33166       84.19930
N         81.70990       78.00247       84.87314
C         80.62510       78.53902       85.67897
C         80.11077       79.90630       85.28765
O         79.20460       80.35969       85.97312
H         81.49237       77.16538       84.31651
H         80.94031       78.54678       86.74511
H         79.75702       77.84912       85.60535
N         80.58457       80.62099       84.22274
C         80.04494       81.93587       83.87067
C         79.48676       81.96210       82.45735
O         79.75674       81.06933       81.67064
C         81.14421       83.00420       84.01399
C         81.67291       83.06394       85.42592
N         82.97198       82.79130       85.69192
O         80.91838       83.36216       86.33990
H         81.34910       80.23842       83.65023
H         79.20542       82.20351       84.54906
H         80.74510       84.00715       83.74837
H         81.96921       82.76612       83.30626
H         83.62535       82.53377       84.93790
H         83.32672       82.83244       86.65893
N         78.67073       82.98595       82.08186
C         78.14998       83.18828       80.73876
C         77.39494       82.00037       80.16858
O         76.48186       81.49239       80.80295
H         78.41365       83.69026       82.79103
H         78.99188       83.45935       80.06613
H         77.46038       84.05998       80.76453
N         77.69707       81.56787       78.90936
C         77.00335       80.49113       78.19671
C         77.34068       79.11649       78.75811
O         78.06289       79.02581       79.73812
C         77.38822       80.55450       76.69350
C         76.85436       81.80027       76.02816
C         75.46557       82.00242       75.92934
C         77.72555       82.75418       75.47900
C         74.95831       83.13790       75.29455
C         77.21493       83.89214       74.84469
C         75.83229       84.08740       74.74848
O         75.35575       85.18501       74.12726
H         78.42634       82.08755       78.39636
H         75.90427       80.63212       78.27912
H         76.96494       79.70687       76.12020
H         78.49392       80.48790       76.60175
H         74.77244       81.27592       76.33504
H         78.79786       82.61754       75.53897
H         73.88631       83.27487       75.22405
H         77.89508       84.62106       74.42313
H         74.40658       85.35090       74.03349
N         76.82963       77.99438       78.15434
C         77.07200       76.60603       78.54863
C         78.55126       76.23386       78.41734
O         79.38905       76.95715       78.92982
C         76.51885       76.29619       79.97207
C         76.54185       74.77117       80.28626
C         75.09921       76.85838       80.17788
C         75.61306       73.89365       79.43540
H         76.19913       78.11939       77.35012
H         76.49326       75.97569       77.84300
H         77.16986       76.80242       80.71572
H         76.25490       74.62467       81.34984
H         77.56687       74.38276       80.15046
H         75.09534       77.96357       80.07862
H         74.38701       76.44663       79.43404
H         74.73839       76.61878       81.20117
H         75.87443       73.93483       78.35993
H         75.71572       72.83683       79.76034
H         74.55106       74.18278       79.56794
N         78.94509       75.06773       77.82283
C         80.34841       74.63465       77.80216
C         80.84677       74.11692       76.45761
O         82.05237       73.96055       76.31989
C         80.53590       73.51071       78.82949
O         79.72636       72.41692       78.48676
H         78.20959       74.42265       77.50152
H         81.01335       75.47511       78.10118
H         80.25138       73.89814       79.82722
H         81.60168       73.19257       78.86453
H         79.73111       71.80648       79.26676
N         79.99596       73.67868       75.48686
C         80.46542       72.93848       74.31657
C         81.24726       73.81935       73.34404
O         81.15628       75.03335       73.46368
C         79.24408       72.32904       73.61693
H         78.98246       73.75696       75.63592
H         81.10106       72.10849       74.68522
H         79.51166       71.70912       72.75183
H         78.69393       71.67751       74.32911
H         78.56268       73.13600       73.27393
N         82.01501       73.32173       72.32126
C         82.38393       71.91689       72.14357
C         82.88107       71.65451       70.72064
O         83.83196       72.30899       70.31518
C         83.51441       71.55138       73.11880
H         82.44630       74.00884       71.68249
H         81.53437       71.26438       72.37028
H         83.79317       70.48257       72.99229
H         84.41379       72.17619       72.92791
H         83.21597       71.70321       74.17352
N         82.35999       70.68764       69.89953
C         81.26240       69.79173       70.25710
C         79.91063       70.48706       70.35771
O         78.96454       69.84519       70.79460
C         81.15027       68.58782       69.28303
C         80.50768       68.82264       67.89402
C         81.25483       69.73859       66.96501
O         81.33159       71.05875       67.21536
O         81.72846       69.29871       65.92932
H         82.84586       70.53446       69.00443
H         81.52957       69.34793       71.24187
H         80.49644       67.83676       69.78085
H         82.14907       68.11353       69.16641
H         79.46868       69.19993       68.00454
H         80.43970       67.82263       67.41091
N         79.72014       71.76970       69.93566
C         78.41750       72.40029       69.97172
H         77.69715       71.81568       69.36055
H         78.04285       72.45887       71.01234
H         78.48173       73.42860       69.55808
H         80.50226       72.31357       69.54609
Ca        80.85631       78.76590       80.58966
O         82.09145       81.79984       79.88109
H         82.87255       81.30687       80.23695
H         82.10905       82.66827       80.35632
O         81.11904       79.30214       77.53711
H         80.69352       80.16507       77.77127
H         80.41002       78.79377       77.06890
O         83.19156       77.18647       79.57334
H         83.27291       76.69273       78.71930
H         84.07998       77.60242       79.70743

Ca 1.0



