%chk=apoCaM-CA-Ng.loop1.water3.frame198.chk
%nprocshared=20
%mem=10GB
%nosave
#b3lyp/svp scf=(tight,noincore,xqc) Test 
#IOP(5/87=12) Density=Current Pop=(MK,readradii) iop(6/33=2) iop(6/42=6)

apoCaM-CA-Ng.loop1.water3.frame198 

   0  1 
C         13.80205        6.44944       27.75934
C         15.20805        6.97187       27.74916
O         15.73888        7.22334       26.67727
H         13.13068        7.17636       27.25859
H         13.76564        5.47949       27.22088
H         13.43744        6.28763       28.79632
N         15.88543        7.12685       28.91827
C         17.26577        7.58337       28.99676
C         18.19382        6.45262       29.41551
O         19.36869        6.71439       29.60495
C         17.38731        8.83556       29.90141
C         16.92948        8.66158       31.32586
O         17.80820        8.80254       32.33660
O         15.75286        8.46065       31.57989
H         15.41593        6.85499       29.79387
H         17.63237        7.90349       28.00274
H         16.81462        9.67549       29.45165
H         18.45170        9.13831       29.91234
N         17.77528        5.15913       29.51527
C         18.65955        4.06971       29.91432
C         18.77198        3.04749       28.79280
O         17.72569        2.60438       28.33683
C         18.08887        3.37943       31.16607
C         17.88501        4.35673       32.33101
C         17.30956        3.63004       33.55435
C         16.84820        4.59624       34.65757
N         17.94007        5.40363       35.20146
H         16.79494        4.91804       29.30663
H         19.65090        4.45996       30.18355
H         18.78410        2.57255       31.47978
H         17.10623        2.91991       30.91664
H         17.16510        5.14151       32.01399
H         18.85305        4.83710       32.59040
H         18.05775        2.90911       33.95209
H         16.41054        3.05624       33.23897
H         16.39622        3.99663       35.47847
H         16.05772        5.26586       34.25071
H         17.55865        6.00909       35.96397
H         18.68309        4.78474       35.59848
H         18.34322        6.02670       34.46619
N         19.94933        2.54221       28.30273
C         21.31992        2.86403       28.70868
C         21.52978        2.74264       30.21250
O         21.86288        3.73815       30.83888
C         21.79857        4.22888       28.16467
C         21.81503        4.32314       26.66624
O         21.33102        3.45489       25.95684
O         22.37395        5.40353       26.10166
H         19.86482        1.80582       27.58406
H         22.00924        2.13280       28.22883
H         22.85280        4.36706       28.49373
H         21.19722        5.06912       28.56514
N         21.42532        1.57232       30.89624
C         21.19468        0.26743       30.31082
C         20.14840       -0.51677       31.05166
O         19.44423        0.04798       31.87646
H         21.62782        1.59409       31.90799
H         22.11952       -0.28184       30.46349
H         20.96871        0.29568       29.22585
N         19.97635       -1.85308       30.83839
C         20.77464       -2.66588       29.91593
C         22.23327       -2.81806       30.35955
O         22.47449       -3.26968       31.46866
C         20.11923       -4.06186       29.73611
C         19.99575       -4.90056       30.98898
O         20.98409       -5.34303       31.55103
O         18.77667       -5.21873       31.46265
H         19.21145       -2.31174       31.35805
H         20.73874       -2.19570       28.90776
H         20.68196       -4.64326       28.97391
H         19.09522       -3.89309       29.33777
N         23.26427       -2.49100       29.52358
C         24.65776       -2.82548       29.81382
C         25.57108       -1.63387       30.01139
O         26.76548       -1.84893       30.15928
H         23.05594       -2.06067       28.60889
H         25.03724       -3.42892       28.95996
H         24.74532       -3.45675       30.72235
N         25.09839       -0.35958       30.04232
C         25.92966        0.82626       30.18683
C         25.55465        1.59217       31.45131
O         24.38028        1.67840       31.78132
C         25.73137        1.70599       28.93100
C         26.17810        0.96974       27.66449
O         26.48706        2.87907       29.04394
H         24.09861       -0.19873       29.91852
H         27.00856        0.56191       30.25205
H         24.64543        1.95778       28.85126
H         26.01702        3.57762       28.51744
H         27.25676        0.71046       27.73748
H         25.59232        0.03935       27.51427
H         26.02836        1.62284       26.77963
N         26.51889        2.26503       32.14753
C         26.25085        3.13961       33.29238
C         26.22654        4.60069       32.82685
O         25.87500        5.46209       33.61667
C         27.33094        2.88981       34.39894
C         27.36131        1.39503       34.81302
C         27.13612        3.78156       35.64840
C         28.62059        1.02506       35.60413
H         27.48512        2.23707       31.78571
H         25.23697        2.92329       33.69888
H         28.31539        3.13921       33.94347
H         27.38400        0.75080       33.91000
H         26.44679        1.13829       35.39154
H         26.14360        3.59521       36.11173
H         27.92050        3.60166       36.40737
H         27.23178        4.85688       35.41053
H         29.52305        1.24280       34.99176
H         28.69634        1.57055       36.56409
H         28.60951       -0.06058       35.83250
N         26.57423        4.94894       31.55229
C         26.53267        6.29943       31.00691
C         25.11605        6.62129       30.53132
O         24.89742        6.77561       29.33625
C         27.56309        6.41980       29.84539
C         28.99524        6.14313       30.32218
O         27.51181        7.71672       29.30660
H         26.93088        4.22545       30.92541
H         26.84489        7.04158       31.77572
H         27.29528        5.67156       29.06114
H         27.79879        7.64702       28.35820
H         29.29114        6.87826       31.10039
H         29.09266        5.11967       30.74033
H         29.69725        6.22900       29.46594
N         24.09715        6.76403       31.42700
C         22.73465        7.13665       31.04317
C         22.72943        8.51362       30.37376
O         23.77709        9.14449       30.30811
C         21.76344        7.05836       32.26729
C         22.11869        7.99102       33.43686
O         21.64534        5.73506       32.73210
H         24.30714        6.63223       32.41760
H         22.36950        6.39990       30.29647
H         20.75150        7.35226       31.92132
H         22.53335        5.42686       33.04851
H         21.35291        7.88566       34.23550
H         23.10001        7.73792       33.88778
H         22.13702        9.04805       33.10278
N         21.58690        9.04131       29.84056
C         21.54864       10.33083       29.15829
C         20.99832       10.24143       27.72222
O         21.02579       11.25438       27.03922
C         20.73665       11.30764       30.03961
C         20.89427       12.80321       29.69959
C         22.33598       13.34535       29.81679
C         22.94152       13.16039       31.22137
N         24.27255       13.75939       31.30385
H         20.70770        8.53693       29.96086
H         22.58358       10.71224       29.08005
H         21.04865       11.17554       31.09680
H         19.66277       11.03590       30.00030
H         20.25210       13.37671       30.40272
H         20.51473       13.00526       28.67809
H         22.30539       14.43084       29.58196
H         22.99481       12.86743       29.06275
H         23.03116       12.07953       31.46363
H         22.27825       13.63829       31.97587
H         24.65124       13.61697       32.26837
H         24.91584       13.30136       30.61796
H         24.21827       14.78544       31.11010
N         20.50093        9.08446       27.17842
C         19.99961        9.00134       25.79980
C         18.82679        9.93413       25.57484
O         17.82225        9.81863       26.26275
C         19.58433        7.55244       25.44821
C         18.97872        7.36343       24.03277
C         19.81271        7.88064       22.87915
O         21.04023        7.39008       22.61083
O         19.35249        8.74513       22.15041
H         20.48933        8.22603       27.74537
H         20.82878        9.27264       25.11014
H         18.83008        7.18534       26.17526
H         20.46974        6.91388       25.57099
H         17.99359        7.87918       24.00765
H         18.78347        6.28103       23.87431
N         18.88243       10.85512       24.57186
C         17.78534       11.73299       24.22489
H         16.90166       11.58736       24.88019
H         18.11952       12.78765       24.30198
H         17.47826       11.52933       23.17660
H         19.73514       10.92203       23.99591
Ca        21.95235        5.85509       23.95360
O         24.45600        7.45610       24.00117
H         25.38475        7.45073       23.65877
H         24.12215        8.36739       23.80587
O         25.33506        4.32201       24.37869
H         25.79423        3.50454       24.06054
H         26.02627        5.02862       24.32565
O         23.02106        2.46285       23.21889
H         23.77317        1.92535       23.57371
H         22.29415        1.80614       23.07561

Ca 1.0



