%chk=apoCaM-CA-Ng.loop1.water3.frame1439.chk
%nprocshared=20
%mem=10GB
%nosave
#b3lyp/svp scf=(tight,noincore,xqc) Test 
#IOP(5/87=12) Density=Current Pop=(MK,readradii) iop(6/33=2) iop(6/42=6)

apoCaM-CA-Ng.loop1.water3.frame1439 

   0  1 
C         61.13613      101.01444       28.78605
C         62.31604      101.45120       27.96985
O         62.55758      100.84496       26.93728
H         60.22174      101.01195       28.15850
H         61.32113       99.98567       29.16470
H         60.97506      101.68127       29.65815
N         63.08929      102.50269       28.37658
C         64.31459      102.95223       27.70699
C         65.52687      102.08822       28.07644
O         66.53386      102.60223       28.54496
C         64.55950      104.45735       27.98890
C         64.72384      104.82933       29.44664
O         64.89263      105.99965       29.74680
O         64.68238      103.90189       30.42472
H         62.76351      103.02349       29.20202
H         64.17134      102.87610       26.61171
H         63.69606      105.02794       27.58466
H         65.46895      104.78460       27.43764
N         65.49310      100.74871       27.86729
C         66.57323       99.82534       28.15651
C         67.57292       99.82960       27.01337
O         68.74250      100.03158       27.30941
C         65.99303       98.45250       28.57418
C         65.15700       98.66160       29.85817
C         64.45615       97.40813       30.37570
C         63.65023       97.77362       31.63604
N         62.90976       96.62676       32.15278
H         64.64183      100.33425       27.50123
H         67.12524      100.16950       29.06270
H         66.81652       97.73728       28.79006
H         65.36055       98.02460       27.76870
H         64.36675       99.41875       29.66466
H         65.82470       99.05301       30.65863
H         65.20586       96.62426       30.61852
H         63.76735       97.02452       29.59225
H         62.92824       98.58719       31.39487
H         64.34259       98.14993       32.42300
H         63.56855       95.85282       32.39654
H         62.39339       96.91983       33.01407
H         62.21834       96.29985       31.43966
N         67.25790       99.74721       25.68335
C         65.93900       99.53907       25.07658
C         65.34889      100.82184       24.51911
O         65.99435      101.86016       24.53986
C         66.01744       98.44970       23.99708
C         67.25370       98.53891       23.13478
O         67.56588       99.55849       22.29215
O         68.05249       97.62348       23.23829
H         68.04458       99.91420       25.03809
H         65.21032       99.18489       25.82359
H         65.09260       98.39867       23.38400
H         66.08611       97.47868       24.53873
N         64.04849      100.82059       24.09703
C         63.32399      102.02249       23.72015
C         63.70949      102.58151       22.38009
O         64.20988      101.85216       21.54362
H         63.50816       99.94265       24.15080
H         63.42331      102.78602       24.51362
H         62.24094      101.78331       23.64070
N         63.43784      103.88527       22.09180
C         63.60150      104.47783       20.76200
C         62.31907      105.20547       20.37638
O         61.48080      105.40144       21.24606
C         64.81491      105.42909       20.77720
C         66.01546      104.62152       21.16521
O         66.59589      104.85386       22.21239
O         66.32541      103.52813       20.43717
H         63.09172      104.48603       22.85554
H         63.78742      103.67172       20.02199
H         64.64222      106.24401       21.51557
H         64.99544      105.89022       19.78908
N         62.03348      105.64242       19.11650
C         62.81425      105.41678       17.91339
C         62.89720      103.95064       17.56528
O         61.89611      103.25359       17.65762
H         61.14424      106.15038       18.98695
H         63.81156      105.89505       17.96153
H         62.27622      105.90694       17.07352
N         64.05323      103.43445       17.06779
C         64.18007      102.04819       16.63445
C         64.28697      101.11293       17.83561
O         64.98242      101.43327       18.78565
C         65.35870      101.90158       15.64045
C         65.43748      100.48647       15.04316
O         66.57011      102.24939       16.25607
H         64.84517      104.07788       16.91353
H         63.28334      101.78267       16.02856
H         65.15822      102.61059       14.80150
H         67.24067      102.34603       15.52928
H         65.64520       99.72774       15.82332
H         64.47949      100.22367       14.54581
H         66.24436      100.44126       14.28132
N         63.65498       99.90431       17.80295
C         63.64449       98.86364       18.83541
C         65.03420       98.42796       19.27309
O         65.75751       99.19360       19.89204
C         62.73564       99.19115       20.05310
C         61.35085       99.73913       19.63494
C         62.59648       97.94834       20.96462
C         60.50298       98.79370       18.78643
H         63.14245       99.67303       16.93830
H         63.15783       97.98850       18.35404
H         63.18493       99.98888       20.65836
H         61.49718      100.68633       19.07299
H         60.77848       99.99296       20.55456
H         63.54383       97.76492       21.51445
H         61.79097       98.08425       21.71622
H         62.36679       97.03651       20.37069
H         61.00994       98.54982       17.83159
H         60.28112       97.85957       19.34175
H         59.54374       99.29673       18.54339
N         65.43265       97.15401       19.02307
C         66.71186       96.58797       19.42491
C         67.46341       96.10577       18.19487
O         68.20898       95.14443       18.29800
C         66.46382       95.42197       20.44758
C         65.50429       94.35595       19.90624
O         65.91494       95.87222       21.65873
H         64.79022       96.53905       18.50418
H         67.36319       97.34643       19.91744
H         67.44288       94.94632       20.67755
H         66.11666       96.82913       21.75325
H         65.84064       93.96033       18.92748
H         65.43356       93.51957       20.63164
H         64.48095       94.77722       19.80077
N         67.25292       96.68902       16.97889
C         67.81757       96.19550       15.72549
C         69.27357       96.65432       15.63325
O         69.54361       97.66185       14.99452
C         66.92025       96.69693       14.55460
C         67.21241       95.94083       13.25884
O         65.56912       96.47273       14.88096
H         66.58980       97.47705       16.92674
H         67.74026       95.08550       15.71025
H         67.08465       97.79314       14.42017
H         65.03154       97.14255       14.38085
H         67.00303       94.85783       13.40884
H         66.53837       96.30818       12.45546
H         68.26535       96.07031       12.94241
N         70.23646       96.03066       16.37855
C         71.55390       96.58087       16.69792
C         71.39750       97.81783       17.56346
O         70.54735       98.64571       17.27279
C         72.47203       96.89424       15.50571
C         72.73467       95.69589       14.58673
C         73.91241       96.02072       13.65508
C         74.22019       94.87987       12.68093
N         75.34270       95.23874       11.81244
H         70.00277       95.14018       16.83457
H         72.09544       95.81873       17.30446
H         73.44351       97.20609       15.95540
H         72.09406       97.74812       14.90473
H         71.81384       95.47808       14.00199
H         72.99994       94.80001       15.18903
H         74.81847       96.20333       14.27722
H         73.68727       96.94312       13.07801
H         73.32443       94.67242       12.05539
H         74.47501       93.95919       13.25200
H         76.19174       95.45213       12.38561
H         75.55757       94.43868       11.17516
H         75.09360       96.07431       11.23416
N         72.21808       98.04179       18.62755
C         72.05053       99.21209       19.47956
C         70.76751       99.10053       20.28369
O         69.92591       99.96860       20.12001
C         73.28671       99.48660       20.35567
C         74.46620       99.94812       19.48620
C         75.64259      100.33430       20.33169
O         76.06678      101.47895       20.30434
O         76.24007       99.42107       21.11966
H         72.98837       97.38200       18.81596
H         71.95218      100.11584       18.83331
H         73.58157       98.60000       20.94674
H         73.03974      100.31672       21.05490
H         74.14957      100.83487       18.89144
H         74.76707       99.14486       18.78111
N         70.47668       98.09376       21.15034
C         71.32126       96.97314       21.48872
H         72.23466       97.31422       22.00731
H         70.77939       96.31316       22.20141
H         71.56196       96.37915       20.58602
H         69.55834       98.12624       21.59394
Ca        66.93619      101.57427       21.43650
O         69.37216      103.11516       19.45431
H         69.69770      103.92229       19.92513
H         69.97168      102.39701       19.77253
O         69.02767      102.81077       22.78788
H         69.95434      102.73635       22.45320
H         68.63487      103.52758       22.23271
O         67.83608      100.04058       18.08181
H         67.42162      100.12720       17.19168
H         68.77669      100.29412       17.92220

Ca 1.0



