%chk=apoCaM-CA-Ng.loop3.water5.frame475.chk
%nprocshared=20
%mem=10GB
%nosave
#b3lyp/svp scf=(tight,noincore,xqc) Test 
#IOP(5/87=12) Density=Current Pop=(MK,readradii) iop(6/33=2) iop(6/42=6)

apoCaM-CA-Ng.loop3.water5.frame475 

   0  1 
C         41.12774       46.38125      117.65223
C         39.92057       45.89308      118.39602
O         38.92216       46.59639      118.44701
H         41.99417       46.43528      118.34465
H         41.36498       45.67511      116.82870
H         40.94969       47.38924      117.22075
N         39.95632       44.67660      119.00975
C         38.85419       44.08743      119.76095
C         38.48840       44.97449      120.94222
O         37.33602       45.36749      121.07076
C         37.66293       43.78665      118.81271
C         36.56299       42.96747      119.44112
O         35.58144       42.67496      118.77726
O         36.64905       42.53541      120.71495
H         40.82786       44.12761      118.94820
H         39.21217       43.11404      120.16457
H         38.04105       43.21168      117.94000
H         37.22769       44.73687      118.43576
N         39.44955       45.35806      121.83410
C         39.17058       46.23349      122.96698
C         39.83509       47.57602      122.74819
O         40.53883       48.07355      123.61849
C         39.63443       45.58054      124.28216
C         38.90292       44.27091      124.58778
C         39.43037       43.67511      125.89805
C         38.68114       42.39351      126.27366
N         39.20535       41.83583      127.52004
H         40.42307       45.05246      121.68156
H         38.08138       46.44543      123.04131
H         39.44543       46.28618      125.12211
H         40.72940       45.38890      124.22153
H         39.06262       43.54214      123.76322
H         37.81415       44.47799      124.67956
H         39.30444       44.41642      126.71780
H         40.51425       43.44956      125.78581
H         38.78947       41.64261      125.45986
H         37.59993       42.62440      126.40049
H         40.21241       41.57861      127.40176
H         39.10939       42.53178      128.29526
H         38.66262       40.97735      127.76700
N         39.62875       48.23598      121.57851
C         40.12193       49.58046      121.34088
C         39.27226       50.54093      122.16003
O         38.07338       50.31905      122.26867
C         40.10929       49.87261      119.82942
C         40.80454       51.16559      119.50963
O         41.84987       51.16111      118.88005
O         40.28670       52.33380      119.91312
H         39.07733       47.77488      120.83933
H         41.19418       49.63687      121.63919
H         39.08007       49.86340      119.41632
H         40.67537       49.05374      119.32984
N         39.82651       51.61490      122.78578
C         39.09360       52.49995      123.68172
C         37.78726       53.01666      123.10878
O         36.81406       53.04456      123.84791
H         40.82714       51.80945      122.63960
H         39.74872       53.34398      123.98491
H         38.84953       51.93578      124.60935
N         37.66708       53.38328      121.80054
C         36.38790       53.76168      121.19647
C         35.92019       52.78731      120.10717
O         34.79888       52.96069      119.64590
C         36.41436       55.22908      120.71894
C         37.66016       55.66332      119.94311
N         37.49234       57.00901      119.40992
O         38.01048       54.78759      118.92133
H         38.50101       53.35414      121.20199
H         35.57612       53.71068      121.95395
H         36.39929       55.87941      121.62016
H         35.49189       55.44549      120.13746
H         37.33232       57.67307      120.20019
H         38.38684       57.28598      118.95195
N         36.66280       51.72193      119.68303
C         36.18614       50.70977      118.74048
C         37.01168       50.63570      117.46487
O         36.82190       49.71258      116.69139
H         37.60853       51.58721      120.06062
H         35.12343       50.86718      118.45269
H         36.24996       49.72678      119.25461
N         37.91184       51.60963      117.16332
C         38.74019       51.64424      115.95858
C         39.34785       53.02804      115.87884
O         39.98578       53.46258      116.82066
C         39.84355       50.56528      115.97635
C         40.89955       50.85604      114.92530
C         40.59121       50.85663      113.55405
C         42.20179       51.19856      115.33178
C         41.56857       51.20445      112.61234
C         43.17144       51.54955      114.39281
C         42.85767       51.55834      113.02849
O         43.78275       51.91231      112.11365
H         37.97433       52.40756      117.80732
H         38.10629       51.49571      115.05737
H         39.41130       49.55054      115.84440
H         40.32049       50.58921      116.96929
H         39.59388       50.60687      113.21563
H         42.46576       51.22039      116.37942
H         41.32067       51.21416      111.55860
H         44.16257       51.82611      114.73055
H         44.67853       52.17939      112.36689
N         39.14577       53.78679      114.77197
C         39.41251       55.21466      114.75607
C         38.30304       55.85356      115.57240
O         38.59327       56.63829      116.46520
C         39.48334       55.74077      113.29651
C         40.61556       54.98602      112.54148
C         39.74533       57.26115      113.29446
C         40.70974       55.32265      111.05536
H         38.63635       53.37762      113.97523
H         40.40607       55.43109      115.21261
H         38.51158       55.54277      112.79287
H         40.43407       53.89296      112.59644
H         41.59731       55.18818      113.02507
H         40.71568       57.49156      113.78624
H         39.76123       57.66662      112.26388
H         38.94205       57.80063      113.83433
H         39.74624       55.09593      110.55239
H         40.97683       56.38526      110.89330
H         41.50544       54.69994      110.59319
N         37.00625       55.45458      115.39158
C         35.91253       55.89081      116.25069
C         35.52647       57.33394      116.00024
O         34.82059       57.90100      116.82011
C         34.67364       54.99831      116.04884
O         34.99150       53.64525      116.23980
H         36.80792       54.73784      114.67569
H         36.24092       55.77235      117.30444
H         34.29695       55.11850      115.01019
H         33.84976       55.29223      116.73766
H         35.20626       53.53496      117.20055
N         35.92250       57.97570      114.86297
C         35.60075       59.35517      114.53106
C         36.20981       60.30410      115.54753
O         35.53783       61.20355      116.03681
C         34.08701       59.53708      114.33388
H         36.48938       57.46818      114.16983
H         36.08837       59.57530      113.55487
H         33.86407       60.56709      113.98623
H         33.72000       58.82124      113.56683
H         33.52750       59.35631      115.27483
N         37.50655       60.12743      115.92031
C         38.23176       60.98102      116.85028
C         39.54651       61.36693      116.20729
O         40.26943       60.46968      115.79099
C         38.48410       60.21896      118.14786
H         38.01108       59.31172      115.53773
H         37.63926       61.88558      117.11353
H         37.51289       59.92988      118.60470
H         39.07809       59.30387      117.95417
H         39.03158       60.86435      118.86736
N         39.90892       62.67325      116.04768
C         41.09001       63.09540      115.29491
C         40.94724       62.61767      113.85981
O         41.83126       61.95182      113.33822
C         42.41872       62.61586      115.95373
C         42.76000       63.28937      117.29239
C         43.25354       64.70290      117.11284
O         42.52718       65.57129      116.65915
O         44.52013       65.01343      117.45345
H         39.28506       63.40951      116.41314
H         41.09870       64.20209      115.23847
H         43.27920       62.79584      115.27210
H         42.37284       61.52122      116.11664
H         43.59580       62.71361      117.74754
H         41.89919       63.25005      117.99298
N         39.81637       62.93079      113.16614
C         39.58016       62.53293      111.79449
H         39.38661       63.43841      111.18257
H         40.44378       61.99126      111.35577
H         38.68904       61.87226      111.75254
H         39.07250       63.46898      113.63594
Ca        40.27864       55.00345      119.05033
O         42.56790       54.82984      117.05982
H         42.87571       55.76150      116.92806
H         43.00771       54.31374      116.33880
O         41.31443       57.84348      119.13270
H         40.58079       57.85122      119.79795
H         40.87037       57.63823      118.27149
O         43.30043       55.30011      120.02835
H         43.55675       56.20178      120.34591
H         44.09937       54.96744      119.54720
O         42.95726       52.89877      121.61007
H         43.18956       52.69152      122.54978
H         43.56397       52.33203      121.07110
O         40.58873       55.16236      122.07867
H         41.33076       55.44923      122.66775
H         39.84370       55.77696      122.29695

Ca 1.0



