%chk=apoCaM-CA-Ng.loop3.water4.frame221.chk
%nprocshared=20
%mem=10GB
%nosave
#b3lyp/svp scf=(tight,noincore,xqc) Test 
#IOP(5/87=12) Density=Current Pop=(MK,readradii) iop(6/33=2) iop(6/42=6)

apoCaM-CA-Ng.loop3.water4.frame221 

   0  1 
C         37.90110       36.03798       80.87750
C         39.39242       35.94954       81.00234
O         40.06563       36.94805       80.79777
H         37.58834       37.06670       80.59568
H         37.55251       35.33476       80.09215
H         37.42783       35.77209       81.84527
N         39.98231       34.76227       81.32753
C         41.42582       34.56802       81.46097
C         42.17516       34.74612       80.14222
O         43.39766       34.70135       80.16816
C         42.01774       35.45964       82.58283
C         41.42675       35.18843       83.94378
O         41.91728       35.84144       85.01218
O         40.53333       34.37075       84.10240
H         39.37531       33.94572       81.49720
H         41.61629       33.51570       81.76890
H         41.90252       36.53635       82.34459
H         43.10646       35.25327       82.66278
N         41.52447       34.88232       78.94696
C         42.21087       35.00509       77.66336
C         41.85725       36.31848       76.96629
O         42.43363       36.60674       75.92725
C         41.82128       33.78091       76.81551
C         42.64456       33.58584       75.52954
C         42.11228       32.42653       74.67160
C         42.12354       31.06262       75.38132
N         41.59877       30.02047       74.50098
H         40.49616       34.84458       78.92175
H         43.31169       34.99442       77.82104
H         40.73804       33.84941       76.57207
H         41.98523       32.88699       77.45311
H         43.71120       33.41392       75.79452
H         42.58795       34.48601       74.88891
H         42.73938       32.35965       73.75580
H         41.07173       32.66599       74.36114
H         41.48719       31.09455       76.29062
H         43.16303       30.80773       75.68439
H         41.60552       29.10731       75.00993
H         40.61355       30.24656       74.23007
H         42.19123       29.93957       73.64343
N         40.94045       37.18580       77.48801
C         40.62618       38.47227       76.88615
C         41.88338       39.31548       76.83057
O         42.62179       39.33566       77.80636
C         39.55299       39.19612       77.71928
C         39.15805       40.48130       77.05718
O         39.44909       41.64896       77.64869
O         38.61137       40.47460       75.96546
H         40.45128       36.94821       78.35683
H         40.21394       38.30986       75.86449
H         39.95490       39.40017       78.73690
H         38.64557       38.56179       77.82810
N         42.19166       40.03530       75.71657
C         43.42767       40.78448       75.58841
C         43.61077       41.80455       76.68916
O         44.55821       41.66370       77.45107
H         41.53954       40.03218       74.91741
H         43.46176       41.29421       74.60161
H         44.27065       40.05928       75.62294
N         42.77778       42.87876       76.82531
C         43.02396       43.89846       77.84747
C         42.72316       43.41892       79.26860
O         42.96897       44.17594       80.19795
C         42.28688       45.21816       77.54535
C         40.81200       45.18709       77.82322
N         40.28073       46.02518       78.74752
O         40.09350       44.41994       77.20488
H         42.02333       43.01001       76.13430
H         44.10270       44.16452       77.77813
H         42.46171       45.51255       76.48825
H         42.74116       46.00749       78.18259
H         40.87461       46.67596       79.28073
H         39.27156       46.04503       78.93294
N         42.20662       42.18117       79.52296
C         41.95327       41.69182       80.86348
C         40.75391       42.35504       81.48259
O         40.89441       42.99934       82.51229
H         42.01887       41.53257       78.75176
H         42.86617       41.82261       81.48552
H         41.72905       40.60319       80.82491
N         39.51836       42.16642       80.93440
C         38.28405       42.64004       81.55033
C         37.46267       43.56608       80.61419
O         38.24983       44.04858       79.56541
C         37.44488       41.40958       81.94233
C         38.16541       40.63977       83.01919
C         38.16027       41.12676       84.33513
C         38.87473       39.46540       82.72168
C         38.85226       40.45173       85.34071
C         39.58270       38.79841       83.72839
C         39.57197       39.29280       85.04254
O         40.25142       38.67256       86.02650
H         39.44054       41.59336       80.08369
H         38.52640       43.21432       82.47215
H         37.30967       40.78232       81.03280
H         36.43110       41.68146       82.30984
H         37.61572       42.02980       84.58076
H         38.90108       39.08701       81.70859
H         38.83688       40.83597       86.35244
H         40.14314       37.90552       83.48624
H         40.78114       37.88168       85.86723
N         36.95327       44.70569       81.40614
C         35.97147       45.55084       80.70187
C         36.70036       46.79340       80.19966
O         36.68419       47.02565       79.00038
C         34.72847       45.91043       81.59264
C         33.99470       44.67259       82.20019
C         33.69840       46.73977       80.79591
C         33.49734       43.64972       81.17368
H         36.61939       44.38820       82.33887
H         35.56934       45.00385       79.82545
H         35.07654       46.53137       82.44813
H         33.12518       45.02854       82.79455
H         34.63847       44.13435       82.92151
H         33.31140       46.18178       79.92099
H         32.84737       47.02555       81.45094
H         34.12795       47.66643       80.39773
H         32.98713       42.81789       81.70214
H         32.76918       44.09701       80.46883
H         34.34673       43.22234       80.60553
N         37.40054       47.61861       81.04392
C         38.16738       48.76831       80.54662
C         37.29073       49.86233       79.95228
O         37.82333       50.72369       79.26760
C         39.07858       49.36786       81.62732
O         38.31201       49.89895       82.67318
H         37.44102       47.38191       82.04708
H         38.83196       48.38762       79.73909
H         39.69750       50.17188       81.16288
H         39.75519       48.57759       82.01939
H         38.93638       50.43916       83.22434
N         35.93965       49.87201       80.14316
C         35.01963       50.77688       79.46778
C         35.20754       50.63212       77.97179
O         35.50250       51.60344       77.28487
C         35.16693       52.21550       79.97322
H         35.52663       49.16919       80.76049
H         33.97928       50.46343       79.71424
H         34.40429       52.85956       79.48328
H         34.98637       52.24330       81.06903
H         36.17369       52.62678       79.76088
N         35.06677       49.40270       77.40824
C         35.28792       49.13530       75.99051
C         34.81257       47.74338       75.60312
O         34.45021       46.96077       76.47296
C         36.78007       49.29589       75.65040
H         34.77464       48.63715       78.03551
H         34.67693       49.85450       75.40288
H         36.97467       49.09000       74.57750
H         37.14079       50.31996       75.87279
H         37.38199       48.59552       76.26236
N         34.71643       47.38950       74.28819
C         34.18816       46.10683       73.82563
C         32.80847       45.86536       74.43877
O         32.60070       44.84200       75.07841
C         35.14255       44.95200       74.19682
C         36.56033       45.05041       73.61881
C         37.44955       44.01110       74.27101
O         38.63750       43.96560       73.99425
O         36.94920       43.20650       75.24135
H         34.97418       48.08596       73.57044
H         34.08945       46.14017       72.71820
H         34.70843       43.98404       73.86167
H         35.21908       44.93609       75.30093
H         36.98831       46.05051       73.84328
H         36.53378       44.92519       72.51415
N         31.83007       46.80511       74.32820
C         30.53411       46.66902       74.96734
H         29.73377       46.71558       74.20233
H         30.42968       45.71299       75.52462
H         30.39601       47.49800       75.69333
H         32.01861       47.67146       73.80310
Ca        37.44813       43.44724       77.46962
O         35.79787       41.18275       78.79416
H         35.71526       40.26193       78.44093
H         35.16119       41.21426       79.55105
O         34.76385       41.43077       75.87654
H         35.15229       40.52065       75.90287
H         34.67521       41.63477       74.91195
O         34.45130       43.84698       77.70544
H         34.90257       44.72571       77.65384
H         33.48836       44.06733       77.75470
O         37.93568       46.06996       76.23302
H         38.53656       46.64985       76.75883
H         37.06993       46.09156       76.71006

Ca 1.0



