%chk=apoCaM-CA-Ng.loop4.water3.frame149.chk
%nprocshared=20
%mem=10GB
%nosave
#b3lyp/svp scf=(tight,noincore,xqc) Test 
#IOP(5/87=12) Density=Current Pop=(MK,readradii) iop(6/33=2) iop(6/42=6)

apoCaM-CA-Ng.loop4.water3.frame149 

   -3  1 
C         52.35176       46.69612       97.73597
C         51.64333       46.60108       99.05112
O         51.48130       45.49258       99.53310
H         53.36191       46.24319       97.83889
H         51.78363       46.13435       96.96568
H         52.46609       47.74985       97.41089
N         51.23195       47.72038       99.71859
C         50.62267       47.68609      101.04389
C         51.54279       46.99426      102.02012
O         51.16622       45.98210      102.56823
C         49.13564       47.21030      101.03312
C         48.70302       46.03037      100.18090
O         49.05589       44.74384      100.39745
O         47.93131       46.24975       99.25997
H         51.42489       48.64454       99.30473
H         50.55349       48.72698      101.43513
H         48.57093       48.07868      100.62281
H         48.77407       47.08149      102.07673
N         52.77465       47.53222      102.27804
C         53.80127       47.02392      103.19564
C         53.35332       47.10524      104.65734
O         53.88825       47.94000      105.37439
C         54.34465       45.63745      102.75264
C         55.46999       45.09520      103.67642
C         54.83320       45.69990      101.29336
C         56.72111       45.97525      103.77195
H         53.01946       48.39569      101.76824
H         54.65416       47.73396      103.10387
H         53.51841       44.90080      102.78721
H         55.77524       44.09084      103.30825
H         55.07496       44.96146      104.70239
H         55.63300       46.45694      101.16120
H         55.22830       44.71711      100.98355
H         54.00184       45.96070      100.60844
H         57.46238       45.48306      104.43607
H         57.19408       46.11721      102.77976
H         56.48136       46.96492      104.20982
N         52.36803       46.31382      105.16874
C         51.82299       46.48494      106.50790
C         52.80133       46.01125      107.58284
O         53.16173       46.83989      108.40652
C         50.41456       45.84846      106.61587
C         49.41341       46.47406      105.66924
O         49.76049       47.48070      104.84143
O         48.26417       46.06424      105.65511
H         51.94122       45.59313      104.58498
H         51.63663       47.57194      106.67411
H         50.03316       45.98732      107.64997
H         50.43624       44.77132      106.39025
N         53.31470       44.74496      107.67672
C         53.01334       43.66210      106.75123
C         53.80018       42.38921      107.00812
O         54.61035       42.37796      107.92394
H         53.97973       44.57497      108.44594
H         53.28854       44.01282      105.75231
H         51.95076       43.41572      106.83473
N         53.67295       41.24719      106.25937
C         52.77919       40.95413      105.13298
C         52.98783       41.89013      103.94828
O         52.41781       42.96789      103.95191
C         51.28840       40.87996      105.53568
C         51.05968       39.94508      106.68918
O         50.51821       40.40806      107.83232
O         51.35332       38.76406      106.59526
H         54.29441       40.46552      106.52445
H         53.03405       39.92439      104.80853
H         50.69139       40.52509      104.66704
H         50.89885       41.87712      105.80562
N         53.71440       41.56171      102.84259
C         54.39280       40.30302      102.61841
C         55.60360       40.11209      103.49431
O         55.97169       40.98695      104.26616
H         53.76405       42.25125      102.08405
H         54.76198       40.27388      101.57108
H         53.67344       39.46521      102.73247
N         56.28427       38.94183      103.39067
C         57.49138       38.62387      104.14282
C         58.66245       39.50611      103.72553
O         59.57857       39.66818      104.51935
C         57.79040       37.12248      103.93494
C         59.01623       36.56581      104.66502
C         59.03466       35.06209      104.51041
N         60.01665       34.43536      103.82358
O         58.13336       34.40035      105.00477
H         55.90030       38.23015      102.74790
H         57.28193       38.78680      105.22449
H         57.91150       36.91299      102.84777
H         56.88989       36.57613      104.29594
H         58.97704       36.81063      105.74817
H         59.93303       37.01989      104.23212
H         60.77812       34.96481      103.38243
H         60.00405       33.41010      103.71640
N         58.72117       40.06784      102.48127
C         59.84199       40.88125      102.00993
C         60.61954       40.17394      100.90840
O         61.60476       40.74325      100.45594
C         59.37030       42.28915      101.54115
C         58.80423       43.10335      102.70926
C         58.34864       42.22861      100.39365
H         57.95934       39.87327      101.81713
H         60.57895       41.03817      102.82905
H         60.26122       42.84466      101.16993
H         58.53699       44.12222      102.35896
H         57.90077       42.62024      103.13400
H         59.56859       43.20859      103.50872
H         58.76183       41.67118       99.52712
H         57.40900       41.74089      100.72151
H         58.09839       43.25584      100.05232
N         60.28526       38.92627      100.45809
C         61.08603       38.19898       99.48037
C         60.30012       37.79781       98.23924
O         60.92315       37.23870       97.34867
C         61.64308       36.92571      100.15071
C         62.48012       37.23703      101.36687
N         63.63504       37.93205      101.25958
O         62.11446       36.84740      102.46406
H         59.47541       38.43249      100.85987
H         61.93870       38.82103       99.13041
H         62.26624       36.34745       99.43474
H         60.78389       36.28558      100.45363
H         63.97153       38.26107      100.34393
H         64.20060       38.13126      102.09834
N         58.95577       38.02014       98.09234
C         58.21240       37.54094       96.91858
C         56.77051       38.02157       96.88363
O         56.22199       38.34435       97.92476
C         58.26166       35.99070       96.82552
C         57.94205       35.29335       98.14042
C         58.95982       34.58673       98.81042
C         56.65827       35.33168       98.71552
C         58.70497       33.94401      100.02465
C         56.40478       34.68451       99.93153
C         57.42488       33.99021      100.58983
O         57.16379       33.36998      101.75866
H         58.44909       38.52776       98.82987
H         58.68781       37.98498       96.01612
H         59.28972       35.70747       96.52619
H         57.60494       35.61558       96.01174
H         59.96006       34.53822       98.39865
H         55.84688       35.85117       98.22948
H         59.50444       33.41090      100.52441
H         55.41202       34.72033      100.36270
H         57.84021       32.87106      102.23913
N         56.10248       38.04775       95.68108
C         54.72254       38.48900       95.44362
C         54.54928       40.00281       95.49089
O         54.02729       40.54598       94.52557
C         53.69255       37.71369       96.29163
C         53.65998       36.21982       95.91119
C         53.17918       36.01942       94.49564
O         51.95043       36.43862       94.13436
O         53.90069       35.48668       93.66753
H         56.61279       37.71017       94.85114
H         54.47658       38.24827       94.38497
H         52.67578       38.13129       96.11889
H         53.90883       37.82791       97.37210
H         52.95976       35.68330       96.58426
H         54.67191       35.77750       96.03841
N         54.98304       40.76446       96.52944
C         54.88376       42.21687       96.55436
C         55.55827       42.80301       95.33048
O         54.93252       43.58441       94.62661
C         55.49194       42.79052       97.85560
C         54.89186       42.20777       99.15621
C         53.39262       42.29614       99.21454
O         52.79542       43.10875      100.10139
O         52.70593       41.60053       98.48379
H         55.43766       40.31511       97.31696
H         53.81448       42.51608       96.52464
H         55.32658       43.89086       97.85504
H         56.58960       42.61146       97.87892
H         55.33147       42.76510      100.00299
H         55.18351       41.14837       99.30661
N         56.80479       42.39801       94.96408
C         57.42236       42.84911       93.73625
H         58.39886       42.34032       93.59325
H         56.76932       42.59538       92.87180
H         57.58199       43.94641       93.76892
H         57.30718       41.70646       95.54136
Ca        50.37556       43.59991      101.82947
O         48.63636       43.04205      104.09817
H         49.39907       43.57829      104.43156
H         48.66998       42.20638      104.62694
O         49.85196       42.38982       98.77164
H         49.26848       42.37092       97.97278
H         50.49208       43.12194       98.58757
O         50.83262       40.54772      101.73630
H         51.50327       40.23730      101.07742
H         50.20000       39.79147      101.82479

Ca 1.0



