%chk=apoCaM-CA-Ng.loop3.water3.frame808.chk
%nprocshared=20
%mem=10GB
%nosave
#b3lyp/svp scf=(tight,noincore,xqc) Test 
#IOP(5/87=12) Density=Current Pop=(MK,readradii) iop(6/33=2) iop(6/42=6)

apoCaM-CA-Ng.loop3.water3.frame808 

   0  1 
C         74.73350       88.83074       77.38451
C         73.25016       88.62057       77.34273
O         72.58179       88.80892       78.34841
H         75.25326       87.88999       77.10910
H         75.00887       89.62307       76.65461
H         75.06236       89.15059       78.39511
N         72.66172       88.26000       76.17271
C         71.21706       88.14012       76.00742
C         70.66782       86.96953       76.82418
O         71.39736       86.01504       77.05412
C         70.91635       88.02663       74.48450
C         69.53929       88.43182       74.04972
O         69.30463       88.58981       72.86285
O         68.60968       88.76307       74.94916
H         73.27380       88.14148       75.34941
H         70.77757       89.09126       76.37246
H         71.19222       87.02447       74.09371
H         71.56048       88.77928       73.97849
N         69.37826       86.96672       77.26934
C         68.75370       85.84855       77.97354
C         67.76104       85.15542       77.05930
O         67.79655       83.93379       76.99672
C         68.05696       86.29329       79.27594
C         69.04780       86.73948       80.36263
C         68.31241       87.01997       81.68420
C         69.29204       87.35108       82.81905
N         68.57855       87.57879       84.07691
H         68.78991       87.78345       77.06807
H         69.50456       85.07755       78.26007
H         67.51056       85.41054       79.67947
H         67.31164       87.08990       79.07186
H         69.60408       87.64258       80.03172
H         69.77482       85.91534       80.53601
H         67.73616       86.11464       81.97907
H         67.60128       87.86308       81.54360
H         69.87840       88.25879       82.55638
H         69.99894       86.50172       82.95498
H         68.03777       86.72422       84.34572
H         69.27084       87.78723       84.83244
H         67.92703       88.39108       83.98051
N         66.89832       85.85634       76.26535
C         66.01201       85.20537       75.30765
C         66.62098       85.15682       73.90989
O         66.00415       84.55701       73.04597
C         64.60173       85.83404       75.35348
C         64.56271       87.29475       74.99170
O         64.89776       87.66792       73.88149
O         64.11428       88.19748       75.88398
H         66.94522       86.88344       76.25481
H         65.87941       84.13747       75.59071
H         64.20314       85.71456       76.38429
H         63.92737       85.28135       74.66409
N         67.86160       85.66051       73.63457
C         68.54801       85.46925       72.36291
C         68.03928       86.28010       71.18055
O         68.59563       86.08724       70.10875
H         68.40827       86.08756       74.39216
H         68.52647       84.38683       72.10927
H         69.61608       85.74929       72.49342
N         67.03171       87.20091       71.26634
C         66.55328       87.96440       70.11058
C         66.67144       89.46637       70.32520
O         66.05648       90.00137       71.23764
C         65.07199       87.65975       69.79019
C         64.84221       86.27903       69.22569
N         65.04473       85.17471       69.97151
O         64.44627       86.16077       68.07563
H         66.58188       87.36561       72.17345
H         67.13152       87.70570       69.19669
H         64.74700       88.38072       69.00516
H         64.43180       87.82577       70.68426
H         65.34837       85.26257       70.94249
H         64.87860       84.23518       69.58241
N         67.35863       90.21873       69.41823
C         67.28539       91.66758       69.34087
C         67.82448       92.38818       70.54827
O         68.99066       92.22210       70.87367
H         67.87242       89.74280       68.66107
H         66.22751       91.95615       69.15815
H         67.87091       92.00666       68.45850
N         67.02939       93.27536       71.21478
C         67.50502       94.11929       72.30583
C         67.94987       93.24130       73.50196
O         66.79452       92.57654       73.95361
C         66.38436       95.09237       72.77531
C         65.81684       95.96013       71.67970
C         64.47655       95.79300       71.28771
C         66.59527       96.94838       71.05687
C         63.92482       96.59513       70.28889
C         66.03656       97.75855       70.06047
C         64.70211       97.58424       69.67289
O         64.17666       98.37114       68.71254
H         66.05607       93.38884       70.89371
H         68.36556       94.71564       71.92882
H         66.75717       95.75213       73.58829
H         65.55535       94.48829       73.20236
H         63.85571       95.03687       71.75285
H         67.62625       97.10040       71.35062
H         62.89196       96.44768       69.99890
H         66.63962       98.52529       69.59115
H         63.25766       98.28035       68.42128
N         68.58631       94.06742       74.56301
C         69.60976       93.38106       75.39552
C         68.93161       92.67020       76.55513
O         67.96493       91.97573       76.32595
C         70.57272       92.43403       74.59132
C         71.69653       91.82464       75.48351
C         71.20972       93.13179       73.37111
C         72.73264       92.82013       76.02649
H         69.08649       94.86447       74.10260
H         70.25116       94.17264       75.83995
H         69.97142       91.58078       74.20662
H         72.25143       91.06574       74.88952
H         71.24096       91.30052       76.34541
H         70.44613       93.46989       72.64813
H         71.79650       94.02330       73.67153
H         71.87626       92.42397       72.83170
H         73.29132       93.31068       75.20324
H         72.26551       93.59643       76.66264
H         73.47451       92.27347       76.64632
N         69.40763       92.74820       77.83104
C         68.78422       92.00623       78.93056
C         68.50966       92.85205       80.16620
O         67.95309       92.30887       81.11349
C         69.67469       90.81023       79.29114
O         70.92073       91.25540       79.75070
H         70.28259       93.26288       78.00388
H         67.80539       91.59343       78.61058
H         69.81277       90.17884       78.38515
H         69.17087       90.20144       80.07636
H         71.39669       90.44852       80.07561
N         68.89263       94.15653       80.26837
C         68.73359       94.92105       81.50153
C         67.27292       95.15812       81.85031
O         66.46379       95.23148       80.93594
C         69.42404       96.27596       81.37047
H         69.37092       94.60903       79.47668
H         69.23892       94.34431       82.30336
H         69.27685       96.86561       82.29185
H         70.51151       96.12780       81.19749
H         68.99345       96.85370       80.52647
N         66.82258       95.28947       83.13683
C         67.63242       95.11932       84.34342
C         67.16286       96.04552       85.46178
O         65.96499       96.07884       85.70943
C         67.47310       93.67344       84.81400
H         65.80156       95.38267       83.26238
H         68.70609       95.26790       84.14529
H         66.40913       93.44476       85.03838
H         67.82386       92.98034       84.01980
H         68.08388       93.49826       85.72520
N         68.00635       96.76077       86.26828
C         69.46371       96.76296       86.18842
C         69.92879       97.55171       84.98607
O         70.70684       97.02746       84.20272
C         70.07313       97.35171       87.48232
C         71.60783       97.22722       87.49842
C         72.18137       97.69200       88.80504
O         72.87731       96.83485       89.57696
O         72.03076       98.84693       89.16985
H         67.57195       97.28376       87.04634
H         69.82524       95.71083       86.14262
H         69.67492       96.77023       88.34370
H         69.77241       98.41476       87.61225
H         72.05489       97.82638       86.67661
H         71.88766       96.16122       87.34790
N         69.49790       98.83120       84.79345
C         69.89150       99.65119       83.66588
H         70.59758       99.12904       82.98711
H         68.98781       99.93002       83.08365
H         70.37769      100.57755       84.03668
H         68.84213       99.24761       85.47181
Ca        67.19725       90.40786       74.48736
O         64.01052       90.74762       73.56345
H         63.27893       90.11419       73.35353
H         63.56550       91.62983       73.62664
O         65.03553       91.70863       76.55400
H         64.06432       91.87785       76.46960
H         65.43381       92.60806       76.66670
O         66.64115       89.40282       77.84557
H         66.06699       88.66063       77.53573
H         66.42564       89.49215       78.80764

Ca 1.0



