%chk=apoCaM-CA-Ng.loop2.water5.frame71.chk
%nprocshared=20
%mem=10GB
%nosave
#b3lyp/svp scf=(tight,noincore,xqc) Test 
#IOP(5/87=12) Density=Current Pop=(MK,readradii) iop(6/33=2) iop(6/42=6)

apoCaM-CA-Ng.loop2.water5.frame71 

   -2  1 
C         44.20115       43.52771       86.24925
C         44.92679       42.50032       87.06559
O         45.13122       41.39275       86.59274
H         43.27160       43.82934       86.77525
H         44.84925       44.41696       86.10595
H         43.93070       43.12549       85.25004
N         45.37981       42.80960       88.31037
C         46.10214       41.84104       89.12766
C         45.20947       40.71518       89.64035
O         45.75596       39.71678       90.08677
C         46.83160       42.53829       90.29538
C         45.89951       43.25504       91.23853
O         45.98892       44.46373       91.38383
O         44.97510       42.57142       91.93888
H         45.24976       43.77424       88.65170
H         46.89453       41.39194       88.48605
H         47.54459       43.27444       89.86164
H         47.42457       41.79408       90.86927
N         43.84230       40.81906       89.65760
C         42.94622       39.79363       90.19409
C         42.93024       38.52108       89.36253
O         42.34334       37.54282       89.80464
C         43.23730       39.52075       91.68015
H         43.39942       41.68269       89.31276
H         41.90414       40.18192       90.16006
H         42.48512       38.81487       92.09332
H         44.23898       39.07893       91.84579
H         43.16049       40.46818       92.25402
N         43.47024       38.48364       88.10906
C         43.39993       37.33022       87.22283
C         44.18911       36.18853       87.81864
O         43.64320       35.11983       88.05623
C         41.93169       36.96845       86.85382
C         41.21958       38.16600       86.27753
O         41.01338       39.14761       86.97166
O         40.89331       38.20274       84.97238
H         43.92459       39.32268       87.72594
H         43.90396       37.59441       86.26638
H         41.35724       36.58989       87.72451
H         41.96141       36.15937       86.09078
N         45.51845       36.36535       88.06879
C         46.37128       35.33538       88.63442
C         47.39496       34.82788       87.64200
O         48.12916       33.91909       88.00401
H         45.95390       37.27063       87.83054
H         45.76975       34.45583       88.94750
H         46.87396       35.73742       89.53991
N         47.47923       35.31753       86.36749
C         48.33598       34.74191       85.33961
C         49.32296       35.80680       84.87242
O         48.89080       36.88185       84.47835
C         47.42126       34.25094       84.19859
C         48.04749       33.17167       83.36068
N         48.20430       31.92661       83.87507
O         48.35537       33.39630       82.20093
H         46.87271       36.09732       86.07568
H         48.88320       33.86612       85.75467
H         47.09445       35.12012       83.58770
H         46.50003       33.79227       84.62289
H         47.89651       31.71209       84.83663
H         48.58926       31.16175       83.30211
N         50.66631       35.60848       84.96450
C         51.64333       36.67446       84.77860
C         51.75542       37.27533       83.38701
O         51.08877       36.85484       82.45263
H         51.01510       34.69392       85.29180
H         52.64894       36.26902       85.03154
H         51.41831       37.48752       85.50034
N         52.68719       38.25760       83.20569
C         53.10274       38.80400       81.91185
C         52.10237       39.73671       81.21133
O         52.38850       40.08672       80.07442
C         54.50396       39.48884       82.03802
C         54.55247       40.70455       82.98555
O         55.47957       38.54285       82.40796
H         53.22923       38.51646       84.04174
H         53.25548       37.93948       81.22779
H         54.79935       39.86154       81.03329
H         55.38210       38.34667       83.37557
H         53.85611       41.48984       82.64928
H         54.30117       40.43560       84.03175
H         55.57735       41.13322       82.98983
N         50.94533       40.19490       81.78098
C         49.99932       41.07652       81.06942
C         48.62797       40.40993       80.92913
O         48.48155       39.26168       81.32469
C         49.97090       42.51215       81.70398
C         49.61450       42.59971       83.20805
C         51.32615       43.20320       81.47692
C         48.20790       42.12363       83.55162
H         50.72343       39.92357       82.74965
H         50.32121       41.23660       80.01670
H         49.24394       43.13837       81.14734
H         49.66381       43.67143       83.50601
H         50.35619       42.04466       83.82007
H         51.58276       43.21950       80.39544
H         51.29198       44.25750       81.82693
H         52.12819       42.68206       82.02635
H         47.45887       42.68123       82.94957
H         48.10434       41.03547       83.38322
H         48.00759       42.31489       84.62654
N         47.57135       41.08231       80.37210
C         46.23373       40.51196       80.20473
C         45.64544       40.83213       78.81255
O         44.46680       40.59240       78.59046
C         45.33777       41.07410       81.32755
C         44.01631       40.36397       81.47431
O         43.15110       40.78929       82.40454
O         43.73123       39.38716       80.79987
H         47.68917       42.07331       80.12068
H         46.26531       39.40991       80.34974
H         45.17549       42.16046       81.16511
H         45.85224       40.94164       82.30285
N         46.40772       41.36153       77.81499
C         45.88319       41.72848       76.49907
C         45.00834       42.98387       76.59457
O         45.50375       43.96322       77.13875
C         47.07413       42.06325       75.56966
C         46.63123       42.49651       74.19256
C         46.08208       41.57596       73.28380
C         46.76090       43.84300       73.81280
C         45.67265       42.00072       72.01469
C         46.34047       44.26466       72.55038
C         45.79927       43.34446       71.65011
H         47.41741       41.48318       77.97715
H         45.35081       40.85924       76.06295
H         47.76176       41.19416       75.47724
H         47.65311       42.88480       76.04719
H         45.97687       40.53257       73.55450
H         47.17260       44.57049       74.50125
H         45.25553       41.28974       71.31338
H         46.43440       45.30625       72.27254
H         45.47825       43.67418       70.67078
N         43.76559       43.10492       76.01536
C         43.09365       44.39493       75.87824
C         42.71427       45.07319       77.17733
O         42.42677       46.26162       77.15222
C         41.84882       44.08772       75.04364
C         42.33901       42.93850       74.18560
C         43.09929       42.09985       75.21106
H         43.79424       45.04777       75.30726
H         41.05291       43.67414       75.70560
H         41.43601       44.95993       74.49204
H         41.54292       42.38943       73.63953
H         43.06886       43.34523       73.44774
H         42.38463       41.54860       75.86160
H         43.76779       41.39625       74.68364
N         42.65757       44.37763       78.34669
C         42.36998       45.01036       79.62833
C         43.52624       45.92565       79.97548
O         43.30950       47.11846       80.13976
C         42.14105       43.93607       80.71930
C         40.83935       43.15292       80.44502
C         40.66725       41.97258       81.36294
O         40.60037       42.12064       82.70155
O         40.59871       40.85006       80.88746
H         42.83179       43.36224       78.32594
H         41.43350       45.61059       79.55759
H         42.05378       44.41726       81.71838
H         43.01120       43.24620       80.73754
H         40.84855       42.76997       79.40199
H         39.96872       43.83597       80.54974
N         44.79483       45.43231       80.05602
C         45.96029       46.25327       80.31516
H         46.66309       46.16762       79.45904
H         45.70460       47.32587       80.44623
H         46.46869       45.89435       81.23347
H         44.95341       44.42544       79.90195
Ca        40.54313       40.21898       83.96558
O         38.64854       37.88132       82.85282
H         37.68585       38.09395       82.76570
H         38.69615       36.89773       82.75085
O         43.26563       39.93876       85.18687
H         43.41989       40.84468       84.82587
H         43.66222       39.32295       84.52158
O         39.56802       41.93161       86.23896
H         40.15188       42.67845       85.95389
H         40.04383       41.52799       87.00688
O         37.80210       41.01781       83.23635
H         37.50430       41.66313       83.92539
H         36.97641       40.55052       82.95529
O         41.70596       37.70128       82.36888
H         41.76364       36.76626       82.68923
H         41.88125       37.64394       81.39754

Ca 1.0



