%chk=apoCaM-CA-Ng.loop3.water5.frame333.chk
%nprocshared=20
%mem=10GB
%nosave
#b3lyp/svp scf=(tight,noincore,xqc) Test 
#IOP(5/87=12) Density=Current Pop=(MK,readradii) iop(6/33=2) iop(6/42=6)

apoCaM-CA-Ng.loop3.water5.frame333 

   0  1 
C         59.72012       39.87170       61.64357
C         60.11173       38.58264       60.98327
O         59.69554       38.34904       59.85965
H         58.61306       39.91440       61.72794
H         60.14781       39.95065       62.66567
H         60.07417       40.73098       61.03843
N         60.89495       37.68093       61.64057
C         61.24508       36.35876       61.13226
C         59.97256       35.53741       60.96056
O         59.71823       34.98372       59.89936
C         62.12872       36.46665       59.86515
C         62.71643       35.15442       59.41009
O         63.44059       35.13259       58.42794
O         62.47588       34.00762       60.07625
H         61.23067       37.91961       62.58664
H         61.85535       35.86011       61.91925
H         62.98023       37.14527       60.09081
H         61.54746       36.90572       59.02822
N         59.10842       35.45353       62.01217
C         57.86175       34.68706       62.01865
C         56.82398       35.12527       60.98479
O         55.78688       34.47886       60.91538
C         57.21653       34.77159       63.42640
C         56.69994       36.19123       63.75675
C         56.13228       36.26941       65.17497
C         55.55013       37.66373       65.44925
N         55.03133       37.75494       66.81273
H         59.38543       35.93929       62.87880
H         58.12657       33.62585       61.81627
H         57.96837       34.45476       64.18220
H         56.36137       34.06284       63.48534
H         55.89742       36.46509       63.03759
H         57.51688       36.93803       63.66350
H         56.94478       36.05349       65.90280
H         55.32798       35.51174       65.29652
H         54.72539       37.86643       64.72911
H         56.33712       38.43746       65.30491
H         55.80693       37.61159       67.49958
H         54.62007       38.70501       66.95942
H         54.28689       37.03610       66.96413
N         56.99023       36.22135       60.18870
C         55.96294       36.69717       59.26362
C         55.61071       35.63225       58.22381
O         56.29197       34.61923       58.13395
C         56.45678       38.01372       58.61033
C         55.45731       38.68152       57.71373
O         54.39569       39.08459       58.16145
O         55.74119       38.85011       56.40960
H         57.84938       36.77253       60.27761
H         55.05138       36.91113       59.86445
H         57.37966       37.79678       58.03429
H         56.72556       38.74144       59.40689
N         54.51502       35.78540       57.42720
C         54.08256       34.79895       56.45335
C         55.13485       34.56216       55.40515
O         55.54117       33.42261       55.22715
H         53.92889       36.62367       57.53251
H         53.16152       35.16205       55.95191
H         53.83173       33.84730       56.97146
N         55.64308       35.60568       54.69113
C         56.68803       35.44604       53.68359
C         58.03241       35.99628       54.15340
O         59.00486       35.83423       53.42930
C         56.21704       36.01155       52.32516
C         55.93057       37.49500       52.27478
N         55.47598       38.04257       51.12405
O         56.10839       38.20761       53.25084
H         55.29586       36.55260       54.90315
H         56.87623       34.36346       53.51309
H         55.28432       35.47584       52.04257
H         56.98591       35.78478       51.55539
H         55.32108       37.45817       50.28953
H         55.27260       39.05024       51.06415
N         58.18384       36.58089       55.37880
C         59.47204       36.93229       55.95867
C         59.60923       38.40044       56.29236
O         60.54730       38.73766       57.00025
H         57.36257       36.72352       55.97970
H         60.32767       36.63737       55.31458
H         59.55846       36.35784       56.90696
N         58.76301       39.34275       55.78846
C         58.90006       40.76227       56.10126
C         58.07083       41.59047       55.14243
O         56.88843       41.32454       54.97895
C         58.46483       41.07064       57.55067
C         58.70228       42.53176       57.86677
C         60.01246       43.03992       57.91314
C         57.62262       43.40252       58.08990
C         60.23820       44.39452       58.17046
C         57.85102       44.75944       58.34189
C         59.16086       45.25994       58.38066
O         59.39588       46.56707       58.61341
H         58.04177       39.04790       55.11453
H         59.96714       41.04852       55.97191
H         59.02669       40.45552       58.28310
H         57.38780       40.81832       57.65578
H         60.86032       42.38742       57.74676
H         56.60441       43.03721       58.05150
H         61.25244       44.77268       58.19981
H         57.00956       45.42238       58.49879
H         58.67939       47.20281       58.75140
N         58.63492       42.64594       54.49384
C         57.90796       43.42994       53.50592
C         57.67261       42.57085       52.27677
O         56.66287       42.76085       51.61529
C         58.66898       44.74679       53.15675
C         58.91405       45.63731       54.41175
C         57.94861       45.56561       52.06464
C         57.64690       46.15128       55.10836
H         59.61576       42.88601       54.70147
H         56.92144       43.71785       53.92939
H         59.66827       44.47024       52.75194
H         59.51974       46.51872       54.10879
H         59.51260       45.08162       55.16248
H         57.87440       44.99871       51.11670
H         56.91932       45.83914       52.37406
H         58.51977       46.49231       51.84350
H         57.93654       46.78029       55.97571
H         57.03857       46.78111       54.42865
H         57.02703       45.31571       55.49116
N         58.55612       41.58899       51.91873
C         58.34873       40.73741       50.75429
C         58.46585       41.50939       49.44773
O         58.15017       40.93813       48.41343
C         59.35845       39.57521       50.74348
O         59.30498       38.85491       51.94534
H         59.38610       41.42077       52.50686
H         57.32828       40.30316       50.83194
H         60.38853       39.97377       50.62563
H         59.17029       38.89198       49.88315
H         58.48462       38.30182       51.90750
N         58.91253       42.80352       49.41010
C         59.01558       43.60001       48.19495
C         57.66420       43.78147       47.52246
O         57.63007       44.04830       46.32840
C         60.07526       43.01800       47.24755
H         59.20124       43.27031       50.27903
H         59.37607       44.61622       48.47125
H         61.04841       42.94396       47.77820
H         59.79069       42.01316       46.87668
H         60.21456       43.68826       46.37226
N         56.50571       43.70634       48.24315
C         55.18801       43.89844       47.65905
C         54.50409       45.09405       48.27640
O         54.88722       45.53081       49.35407
C         54.33593       42.64749       47.87720
H         56.54961       43.52477       49.25429
H         55.27508       44.07967       46.56575
H         54.82938       41.76721       47.41457
H         54.20974       42.45265       48.96541
H         53.33171       42.77481       47.41979
N         53.49715       45.70959       47.59613
C         52.77576       46.88144       48.07408
C         53.75331       47.99246       48.43667
O         53.64797       48.57150       49.51051
C         51.85716       46.50170       49.26012
C         50.87818       45.37431       48.89786
C         50.04955       44.98750       50.08884
O         49.24318       45.89154       50.67687
O         50.10304       43.85013       50.52980
H         53.24529       45.35072       46.66170
H         52.13236       47.24314       47.24045
H         51.27827       47.39701       49.57843
H         52.48289       46.16705       50.11595
H         51.44542       44.48159       48.55401
H         50.20768       45.70277       48.07503
N         54.78448       48.29658       47.60168
C         55.78243       49.28472       47.94976
H         56.57354       49.31653       47.17120
H         55.31239       50.28638       48.03304
H         56.25832       49.01688       48.91896
H         54.89599       47.77848       46.71695
Ca        54.28394       39.83981       55.00575
O         52.70767       38.63565       52.59984
H         51.76206       38.35463       52.68010
H         52.75536       39.09732       51.72576
O         54.29220       42.57616       56.00625
H         54.19275       42.89006       56.93950
H         54.55037       43.38252       55.49349
O         54.19250       41.71153       52.61994
H         54.85203       41.00473       52.40670
H         53.46239       41.57364       51.96637
O         51.65905       41.19286       54.46558
H         51.35799       41.29481       53.52799
H         50.82294       41.14540       54.99308
O         52.48717       37.66246       55.50682
H         51.85457       37.11412       54.97939
H         51.92104       38.14384       56.16050

Ca 1.0



