%chk=apoCaM-CA-Ng.loop2.water4.frame1240.chk
%nprocshared=20
%mem=10GB
%nosave
#b3lyp/svp scf=(tight,noincore,xqc) Test 
#IOP(5/87=12) Density=Current Pop=(MK,readradii) iop(6/33=2) iop(6/42=6)

apoCaM-CA-Ng.loop2.water4.frame1240 

   -2  1 
C         49.17913       40.65913       29.33079
C         49.80588       39.31794       29.06713
O         49.84957       38.91386       27.91436
H         48.30690       40.55191       30.00644
H         49.92778       41.33942       29.78802
H         48.83364       41.11981       28.38060
N         50.35606       38.55690       30.05532
C         50.41294       38.93818       31.46441
C         50.16582       37.72110       32.35780
O         49.73197       36.69362       31.85319
C         51.73675       39.68042       31.74729
C         52.95716       38.82982       31.62481
O         53.25676       38.31992       30.55711
O         53.75312       38.66584       32.69842
H         50.83373       37.68553       29.77297
H         49.62276       39.67957       31.70445
H         51.70799       40.10759       32.77066
H         51.83312       40.54104       31.05230
N         50.43237       37.76176       33.69900
C         50.17991       36.67230       34.64092
C         50.91664       35.36066       34.35238
O         50.70225       34.43365       35.12237
C         48.66773       36.42189       34.74871
H         50.81584       38.62635       34.10401
H         50.51370       37.01023       35.64813
H         48.45447       35.67363       35.54248
H         48.14942       37.36469       35.02514
H         48.24654       36.04603       33.79424
N         51.77424       35.17769       33.29833
C         52.36764       33.87303       32.98877
C         53.90412       33.86713       33.04927
O         54.45358       34.87273       33.84328
C         51.87310       33.40041       31.60088
C         52.24657       34.20692       30.35597
O         51.75507       33.85363       29.29612
O         53.08343       35.27603       30.33390
H         51.98304       35.96323       32.67384
H         52.02482       33.12401       33.73438
H         50.76245       33.37924       31.65593
H         52.21144       32.35688       31.42941
N         54.48366       32.55241       33.34936
C         55.94614       32.55095       33.20611
C         56.39473       32.69443       31.76487
O         56.09117       33.69726       31.13417
H         54.08257       31.82187       32.71772
H         56.33015       31.59949       33.63133
H         56.39787       33.36422       33.81450
N         57.17913       31.73582       31.19877
C         57.73930       31.85860       29.85471
C         56.68406       31.85333       28.75558
O         55.52414       31.56175       29.01336
C         58.78692       30.74583       29.59244
C         58.20775       29.34294       29.56860
N         58.31054       28.57229       28.46095
O         57.65783       28.88866       30.56041
H         57.45240       30.93655       31.78720
H         58.27385       32.83411       29.81628
H         59.56918       30.79449       30.38027
H         59.29009       30.95125       28.62366
H         58.77597       28.92145       27.61123
H         57.92509       27.61585       28.45541
N         57.05456       32.17814       27.48292
C         56.17782       32.13542       26.32370
C         55.96068       33.51728       25.73587
O         56.33922       34.49602       26.36269
H         58.02954       32.46753       27.31251
H         55.18165       31.70845       26.57167
H         56.66104       31.47483       25.57419
N         55.33242       33.70651       24.53752
C         55.01074       32.61897       23.61672
C         56.25189       32.18772       22.83857
O         56.25180       31.08335       22.31329
C         53.87369       33.01322       22.64246
C         52.56246       33.26841       23.39893
O         54.24509       34.15676       21.91393
H         55.18963       34.67771       24.21731
H         54.64860       31.74519       24.20169
H         53.70615       32.16401       21.93970
H         53.56607       34.28089       21.20019
H         51.75374       33.52427       22.68162
H         52.25679       32.35255       23.94894
H         52.67310       34.10408       24.12114
N         57.32338       33.02476       22.68215
C         58.54970       32.66633       21.96583
C         59.77240       32.91608       22.85898
O         59.69256       33.78952       23.71185
C         58.66432       33.46735       20.62695
C         58.63075       35.00572       20.84764
C         57.55556       33.01571       19.65590
C         58.91767       35.81745       19.58295
H         57.26471       33.97738       23.06832
H         58.52249       31.59506       21.69621
H         59.63716       33.20761       20.15673
H         59.41033       35.28743       21.58521
H         57.64111       35.31692       21.24517
H         57.67160       33.48591       18.65914
H         57.61127       31.91759       19.49695
H         56.54993       33.26714       20.05455
H         58.15218       35.65116       18.79955
H         58.91465       36.89986       19.83106
H         59.91509       35.55383       19.18233
N         60.97450       32.27581       22.70763
C         61.23000       31.15100       21.81389
C         62.72574       30.99777       21.54319
O         63.49003       30.78992       22.47651
C         60.66385       29.83381       22.40867
C         61.29479       29.44991       23.72458
O         61.18182       30.25683       24.79717
O         61.90970       28.39990       23.82528
H         61.75608       32.60013       23.29954
H         60.73450       31.33850       20.84029
H         60.83223       29.01757       21.67162
H         59.57280       29.90864       22.57663
N         63.21029       31.08464       20.27104
C         64.61649       30.87204       19.93167
C         64.83891       31.15111       18.44764
O         64.16654       30.51782       17.64082
C         65.02841       29.40052       20.19307
C         66.47738       29.18405       19.81966
C         66.81022       28.60287       18.58284
C         67.50512       29.59974       20.68169
C         68.14861       28.45273       18.21113
C         68.84405       29.43062       20.31321
C         69.16514       28.86323       19.07668
H         62.54653       31.30751       19.51240
H         65.23923       31.54669       20.55419
H         64.37730       28.74956       19.56768
H         64.87020       29.08081       21.24416
H         66.03413       28.29176       17.89457
H         67.26853       30.04974       21.63774
H         68.39680       28.02309       17.24909
H         69.63346       29.74576       20.98292
H         70.20120       28.74423       18.78726
N         65.78001       32.02921       17.98135
C         66.70934       32.81956       18.78446
C         66.06962       34.08950       19.34793
O         66.80306       34.93455       19.84307
C         67.81917       33.13398       17.77188
C         67.03873       33.33728       16.49421
C         66.04547       32.18476       16.56316
H         67.18930       32.24271       19.60356
H         68.50738       33.95750       18.05817
H         68.43216       32.21160       17.63231
H         66.48252       34.29595       16.59567
H         67.64044       33.36715       15.56125
H         65.13739       32.43193       15.97189
H         66.49581       31.23623       16.19223
N         64.71832       34.27160       19.35868
C         64.03893       35.44183       19.90288
C         62.98964       35.92051       18.90834
O         62.26460       35.08694       18.38280
C         63.34065       35.06569       21.22551
C         64.30993       34.72665       22.37715
C         65.08680       35.91996       22.88489
O         65.90017       36.49282       22.17865
O         64.90246       36.34625       24.14920
H         64.11077       33.51763       19.01593
H         64.74885       36.25770       20.11702
H         62.68167       34.18905       21.03956
H         62.69759       35.90782       21.56586
H         65.00765       33.91498       22.08100
H         63.69529       34.35198       23.22289
N         62.78169       37.23601       18.61948
C         63.50042       38.32286       19.24709
H         64.58028       38.26735       19.00039
H         63.10398       39.29426       18.88254
H         63.35651       38.28305       20.34889
H         62.03601       37.48073       17.94925
Ca        54.36370       36.08667       32.00180
O         57.95361       36.62029       29.64179
H         58.55151       35.83695       29.54621
H         57.82677       36.94914       28.71630
O         55.10520       36.37496       28.45581
H         55.41201       35.47053       28.71854
H         54.24645       36.22004       27.98817
O         57.31342       36.47298       33.18912
H         57.83263       35.70925       33.54613
H         57.86911       37.26751       33.39028
O         56.40522       39.08380       31.42128
H         55.77535       39.84403       31.34638
H         57.29830       39.49157       31.29709

Ca 1.0



