%chk=apoCaM-CA-Ng.loop2.water5.frame79.chk
%nprocshared=20
%mem=10GB
%nosave
#b3lyp/svp scf=(tight,noincore,xqc) Test 
#IOP(5/87=12) Density=Current Pop=(MK,readradii) iop(6/33=2) iop(6/42=6)

apoCaM-CA-Ng.loop2.water5.frame79 

   -2  1 
C         38.72824       43.18727       54.08076
C         39.17079       42.39367       55.27366
O         40.03589       41.54279       55.12263
H         37.94115       43.92163       54.35165
H         39.59452       43.73119       53.65059
H         38.31552       42.49671       53.31462
N         38.62609       42.61988       56.50301
C         38.99112       41.83660       57.67554
C         38.61679       40.37173       57.50484
O         39.47391       39.53761       57.74950
C         38.46609       42.44887       59.00024
C         36.98412       42.65272       59.18414
O         36.54265       43.16687       60.34755
O         36.17895       42.39691       58.30762
H         37.93619       43.37882       56.60657
H         40.09861       41.88491       57.79749
H         38.94018       43.44740       59.11968
H         38.82830       41.80670       59.83325
N         37.38414       39.97983       57.05395
C         36.98290       38.58670       56.86399
C         37.79267       37.87200       55.78428
O         37.69407       36.65610       55.69981
C         37.01137       37.82957       58.20205
H         36.68814       40.69412       56.80929
H         35.92240       38.56231       56.52639
H         36.60284       36.80440       58.06956
H         38.03736       37.73915       58.61001
H         36.37217       38.35507       58.94333
N         38.57193       38.55914       54.89063
C         39.36277       37.93877       53.82710
C         40.51124       37.08966       54.38754
O         41.12475       36.34126       53.64200
C         38.42869       37.18059       52.85069
C         39.12726       36.74987       51.59226
O         39.17170       35.44638       51.25850
O         39.63760       37.58015       50.85677
H         38.59097       39.58361       54.93438
H         39.83570       38.75519       53.23515
H         37.60237       37.86098       52.54806
H         37.98278       36.29105       53.33840
N         40.90814       37.22198       55.68576
C         41.98369       36.47629       56.31326
C         43.31868       36.64240       55.62378
O         43.94367       35.62860       55.34483
H         40.43350       37.90029       56.28827
H         41.71390       35.39774       56.35972
H         42.09016       36.83809       57.35917
N         43.82437       37.87545       55.31347
C         45.13434       38.05175       54.68429
C         45.96548       39.04302       55.49391
O         45.55414       40.18286       55.66166
C         44.95951       38.48499       53.21681
C         46.21832       38.29032       52.39151
N         47.36511       38.95563       52.66022
O         46.19574       37.50184       51.45763
H         43.24597       38.71016       55.49668
H         45.65740       37.07104       54.64666
H         44.58702       39.52634       53.15164
H         44.18269       37.82662       52.77163
H         47.42869       39.62298       53.43529
H         48.20614       38.79785       52.08565
N         47.14725       38.65109       56.04344
C         47.98844       39.47685       56.89922
C         48.67822       40.63437       56.20118
O         49.29098       40.42975       55.16311
H         47.45288       37.67770       55.89546
H         48.81059       38.82925       57.27033
H         47.41492       39.81701       57.78868
N         48.73909       41.85613       56.81006
C         49.54783       42.97147       56.30980
C         49.05711       43.47437       54.96876
O         49.87965       43.71759       54.09702
C         49.68020       44.13458       57.33658
C         48.36801       44.82623       57.73252
O         50.36969       43.70094       58.48406
H         48.25365       41.96409       57.71187
H         50.59446       42.61468       56.17089
H         50.31928       44.91519       56.86540
H         49.78520       43.07278       58.98054
H         47.86917       45.26011       56.84633
H         47.67334       44.12292       58.23378
H         48.59051       45.65694       58.43638
N         47.72601       43.61204       54.72256
C         47.19150       44.04412       53.43539
C         46.51962       42.88589       52.73635
O         46.38682       41.81914       53.31428
C         46.24291       45.27543       53.59931
C         45.16072       45.14877       54.71216
C         47.08029       46.53351       53.87212
C         44.19154       43.97744       54.56021
H         47.06304       43.33398       55.46004
H         48.01631       44.32612       52.74367
H         45.72691       45.45809       52.63115
H         44.55029       46.07785       54.70592
H         45.63930       45.08035       55.71215
H         47.64426       46.44179       54.82206
H         47.80271       46.69909       53.04435
H         46.42431       47.42857       53.92957
H         43.43070       44.02607       55.36785
H         43.67510       44.02247       53.57944
H         44.70985       43.00801       54.67482
N         46.11717       43.02146       51.44185
C         45.43816       41.95434       50.71389
C         45.50637       42.20102       49.19876
O         44.64255       41.73623       48.47450
C         44.00507       41.88411       51.29813
C         43.06839       40.82988       50.79704
O         43.39657       39.94085       49.84552
O         41.92996       40.81954       51.23785
H         46.28683       43.92523       50.97785
H         45.97781       40.99624       50.88238
H         43.52020       42.86850       51.11813
H         44.06668       41.73444       52.39504
N         46.56395       42.86040       48.63709
C         46.73552       43.05946       47.19937
C         45.51416       43.72728       46.57092
O         45.12550       44.78247       47.04631
C         48.02340       43.88626       46.94433
C         48.24783       44.21276       45.48517
C         49.15055       43.46523       44.71154
C         47.55762       45.28396       44.88676
C         49.34213       43.77329       43.36002
C         47.75796       45.59308       43.54040
C         48.64645       44.83565       42.77551
H         47.30924       43.21967       49.25066
H         46.89228       42.06135       46.74812
H         48.87800       43.28700       47.33031
H         48.01715       44.83861       47.51975
H         49.69410       42.63748       45.14893
H         46.87047       45.88889       45.46346
H         50.03005       43.18801       42.76452
H         47.22385       46.42105       43.09190
H         48.79732       45.07473       41.73101
N         44.89135       43.20883       45.45838
C         43.80205       43.86971       44.74299
C         42.47398       44.04361       45.47113
O         41.59149       44.64005       44.86886
C         43.58094       42.97981       43.51335
C         44.97345       42.46196       43.25182
C         45.42693       42.11607       44.66291
H         44.18543       44.86780       44.43008
H         42.96301       42.09666       43.80057
H         43.09504       43.49218       42.65562
H         45.04102       41.62227       42.52836
H         45.59053       43.31192       42.87682
H         44.97845       41.16287       45.00810
H         46.53401       42.05328       44.64037
N         42.23673       43.57403       46.73330
C         40.96967       43.79600       47.43466
C         41.13482       44.78130       48.58649
O         40.12988       45.12648       49.19259
C         40.33019       42.45849       47.90258
C         39.92795       41.57853       46.70466
C         39.08176       40.37332       47.06270
O         37.94316       40.30551       46.62749
O         39.54981       39.33460       47.78823
H         42.98013       43.07318       47.23376
H         40.23689       44.29005       46.75924
H         39.39930       42.70246       48.46087
H         41.01369       41.91380       48.58809
H         40.82534       41.24954       46.14486
H         39.31836       42.21134       46.02223
N         42.34457       45.32564       48.91053
C         42.52361       46.35220       49.91639
H         42.97952       47.24631       49.43792
H         41.56627       46.66410       50.38228
H         43.20886       45.98300       50.70672
H         43.19173       45.03274       48.41689
Ca        41.49450       39.23288       48.90197
O         44.29144       36.97729       48.19291
H         44.41958       36.04062       48.48793
H         44.96184       37.49332       48.70751
O         43.07397       39.89647       46.18337
H         42.99504       40.41177       47.02344
H         43.86919       39.32309       46.31846
O         41.42086       35.19864       48.43688
H         40.87103       35.60137       49.15396
H         40.94161       34.36664       48.19668
O         42.82358       36.66655       50.86302
H         42.14173       36.08555       51.28176
H         43.66598       36.15457       50.95257
O         41.43679       37.28294       46.28038
H         40.46842       37.22482       46.08308
H         41.84292       37.60221       45.43614

Ca 1.0



