%chk=apoCaM-CA-Ng.loop4.water3.frame341.chk
%nprocshared=20
%mem=10GB
%nosave
#b3lyp/svp scf=(tight,noincore,xqc) Test 
#IOP(5/87=12) Density=Current Pop=(MK,readradii) iop(6/33=2) iop(6/42=6)

apoCaM-CA-Ng.loop4.water3.frame341 

   -3  1 
C         79.55001       79.14892       39.33551
C         79.89703       78.00966       38.42810
O         80.92344       77.40112       38.64287
H         78.59232       78.92371       39.84999
H         80.33814       79.28179       40.11002
H         79.45374       80.08729       38.75448
N         79.07596       77.66887       37.39510
C         79.21721       76.51378       36.50438
C         80.00197       75.33203       37.05974
O         81.07777       75.04268       36.57175
C         79.43365       76.89880       35.01719
C         80.70597       77.50385       34.45217
O         81.87794       77.68183       35.09825
O         80.66516       77.85679       33.28413
H         78.24209       78.25734       37.24464
H         78.19357       76.07607       36.45318
H         78.62841       77.63172       34.78593
H         79.23177       75.99236       34.40461
N         79.43910       74.58038       38.06153
C         79.94357       73.35190       38.69301
C         79.98642       72.16892       37.72421
O         79.20655       71.24643       37.92287
C         81.26748       73.55490       39.48506
C         81.74387       72.26185       40.21097
C         81.12083       74.68558       40.51766
C         80.80713       71.73986       41.31303
H         78.52263       74.90049       38.41283
H         79.17700       73.08119       39.45403
H         82.06190       73.84350       38.76387
H         82.73179       72.46447       40.67761
H         81.89030       71.44928       39.47107
H         80.83752       75.61995       40.03191
H         80.31684       74.47450       41.25087
H         82.07879       74.85349       41.05370
H         79.80924       71.47554       40.90892
H         81.24434       70.82578       41.76505
H         80.68709       72.47916       42.13130
N         80.85197       72.09829       36.67027
C         80.87767       70.96270       35.75870
C         81.37970       69.70766       36.48293
O         80.60520       68.76368       36.54976
C         81.63743       71.29887       34.44941
C         80.96107       72.41259       33.69071
O         81.62739       73.55163       33.42300
O         79.81135       72.28453       33.30036
H         81.51569       72.85644       36.49748
H         79.83326       70.76129       35.42263
H         81.65772       70.40248       33.79260
H         82.67296       71.62042       34.63704
N         82.60681       69.57685       37.08256
C         83.64859       70.59414       37.06307
C         84.93940       70.19512       37.77398
O         84.97331       69.13009       38.37321
H         82.79534       68.68143       37.55755
H         83.26262       71.52384       37.51840
H         83.90665       70.72524       36.02108
N         86.07790       70.96807       37.77108
C         86.27648       72.26624       37.12085
C         85.33316       73.28714       37.75012
O         84.38059       73.69047       37.09820
C         86.26094       72.14643       35.57258
C         86.79588       73.37341       34.88701
O         86.13313       73.93653       34.03289
O         88.03398       73.82391       35.16728
H         86.89162       70.60050       38.28924
H         87.31942       72.58821       37.30365
H         85.26865       71.93732       35.15309
H         86.93885       71.31090       35.29238
N         85.48440       73.72810       39.04192
C         86.68455       73.53637       39.85162
C         86.50754       72.71211       41.10067
O         85.42329       72.23165       41.39765
H         84.74763       74.32584       39.44504
H         87.06781       74.53962       40.13773
H         87.49152       73.04289       39.29240
N         87.62033       72.47492       41.85731
C         87.65864       71.61622       43.03862
C         86.90690       72.19528       44.22340
O         86.71354       71.46625       45.18722
C         89.12544       71.43115       43.51790
C         90.07202       70.74319       42.51670
C         89.79656       69.27413       42.30384
N         90.60379       68.55702       41.48946
O         88.87017       68.71749       42.87493
H         88.50399       72.89507       41.53058
H         87.21281       70.63501       42.76817
H         89.15996       70.85172       44.46726
H         89.53551       72.44418       43.73504
H         91.10172       70.82169       42.92807
H         90.06082       71.26999       41.54030
H         91.39729       69.00642       41.00890
H         90.44202       67.54946       41.34570
N         86.55607       73.51090       44.27934
C         85.99022       74.13325       45.47240
C         86.93954       75.17864       46.06297
O         86.57497       75.75596       47.07828
C         84.57767       74.71030       45.18680
C         83.58110       73.58127       44.88172
C         84.57657       75.73803       44.04954
H         86.75830       74.11934       43.47425
H         85.86181       73.38343       46.28530
H         84.21808       75.21528       46.11112
H         83.87359       73.02232       43.96776
H         83.53814       72.87025       45.73549
H         82.56162       73.99769       44.73587
H         84.85354       75.25764       43.08946
H         83.56266       76.17494       43.93149
H         85.28970       76.55893       44.26959
N         88.18877       75.42522       45.55006
C         89.15165       76.31336       46.20568
C         89.69589       77.43200       45.31351
O         90.36526       78.29667       45.86318
C         90.35209       75.46316       46.68557
C         89.97408       74.42414       47.70978
N         89.53685       74.79256       48.93579
O         90.09153       73.23779       47.43991
H         88.51377       74.90222       44.72524
H         88.68605       76.81031       47.08388
H         91.14283       76.10387       47.13271
H         90.78496       74.95188       45.79860
H         89.45744       75.78802       49.18865
H         89.29831       74.08064       49.64211
N         89.56964       77.44270       43.95047
C         90.33234       78.36739       43.10145
C         89.52081       78.84595       41.90608
O         88.94568       78.01589       41.21785
C         91.57237       77.62589       42.55853
C         92.47684       77.12826       43.66365
C         92.62112       75.74847       43.87661
C         93.17862       78.02561       44.49025
C         93.43899       75.27118       44.90317
C         94.00461       77.54438       45.51347
C         94.13362       76.16741       45.72623
O         94.92332       75.71680       46.72194
H         89.08506       76.66145       43.48783
H         90.70452       79.24391       43.67734
H         92.16394       78.29365       41.89353
H         91.21938       76.76806       41.94542
H         92.08625       75.03931       43.25797
H         93.09056       79.09498       44.34289
H         93.52596       74.20376       45.05993
H         94.54313       78.24144       46.14405
H         95.03078       74.77201       46.90433
N         89.52571       80.16586       41.54026
C         88.91659       80.70183       40.31561
C         87.39737       80.63664       40.29347
O         86.82689       81.02784       39.28333
C         89.47872       80.02393       39.03833
C         90.99461       80.18292       38.88375
C         91.45432       79.56474       37.59213
O         91.02762       79.97837       36.52487
O         92.34150       78.55225       37.60466
H         90.05563       80.83139       42.12355
H         89.17278       81.78322       40.24611
H         89.00221       80.50050       38.15262
H         89.21341       78.94677       39.01102
H         91.51273       79.69154       39.73418
H         91.26196       81.26171       38.87717
N         86.66481       80.20766       41.35748
C         85.21179       80.11852       41.32774
C         84.62672       81.17368       42.23883
O         83.86034       82.00054       41.76122
C         84.76747       78.69332       41.71630
C         85.31810       77.58374       40.79162
C         84.78231       77.66570       39.39065
O         85.04053       78.61833       38.67355
O         83.98904       76.68724       38.92173
H         87.13905       79.94835       42.23334
H         84.81226       80.33791       40.31635
H         83.65627       78.63728       41.71943
H         85.12214       78.48293       42.74722
H         85.00044       76.60898       41.21362
H         86.42638       77.59564       40.77238
N         84.96609       81.24150       43.55389
C         84.45369       82.28481       44.41483
H         83.34650       82.22162       44.47132
H         84.87612       82.17678       45.43530
H         84.74562       83.28053       44.01475
H         85.62229       80.55404       43.95215
Ca        82.87830       77.08810       37.01346
O         83.68362       75.72813       34.07424
H         84.60617       75.98055       33.81939
H         83.77103       74.84713       34.51737
O         84.67096       78.92222       35.17920
H         85.45462       78.65525       34.63634
H         84.06691       79.37364       34.53780
O         86.22309       76.69394       36.54986
H         86.86409       76.64946       37.30275
H         86.14205       75.75946       36.23766

Ca 1.0



