%chk=apoCaM-CA-Ng.loop3.water6.frame1159.chk
%nprocshared=20
%mem=10GB
%nosave
#b3lyp/svp scf=(tight,noincore,xqc) Test 
#IOP(5/87=12) Density=Current Pop=(MK,readradii) iop(6/33=2) iop(6/42=6)

apoCaM-CA-Ng.loop3.water6.frame1159 

   0  1 
C         80.52100       45.81262       62.90705
C         80.27728       44.68246       61.95456
O         81.10863       44.44160       61.09158
H         81.48667       46.31521       62.68423
H         79.70258       46.55710       62.80898
H         80.54383       45.42765       63.94731
N         79.13196       43.95087       62.05165
C         78.78167       42.87698       61.12891
C         77.51220       43.22388       60.36461
O         76.80596       42.31946       59.93937
C         78.68251       41.52615       61.87811
C         77.58417       41.42184       62.90939
O         76.80924       42.34197       63.11812
O         77.44681       40.27659       63.60359
H         78.46357       44.19222       62.79846
H         79.58096       42.74296       60.36707
H         79.65435       41.33664       62.38266
H         78.52376       40.71495       61.13420
N         77.20233       44.52802       60.08845
C         76.04369       44.95563       59.30826
C         76.11637       44.32525       57.93669
O         75.18490       43.65980       57.50364
C         74.72632       44.65043       60.05319
C         74.69512       45.36379       61.41061
C         73.39313       45.08809       62.16506
C         73.38912       45.83530       63.50505
N         72.15490       45.58250       64.24528
H         77.83762       45.27281       60.41072
H         76.10705       46.05824       59.16836
H         74.61138       43.55563       60.20607
H         73.87105       45.00664       59.43755
H         74.79752       46.45866       61.24380
H         75.54787       45.01573       62.03421
H         73.29666       43.99513       62.34857
H         72.52961       45.42673       61.55158
H         73.48668       46.92833       63.31825
H         74.25792       45.50564       64.11792
H         72.18422       46.11315       65.14576
H         71.32983       45.90406       63.68881
H         72.06566       44.56192       64.45550
N         77.28154       44.43067       57.24497
C         77.56530       43.67961       56.03296
C         78.51862       42.55647       56.38404
O         79.10133       42.56623       57.46016
C         78.10958       44.58141       54.89532
C         79.26665       45.45721       55.31136
O         80.49374       45.28148       54.79162
O         79.09340       46.36127       56.11321
H         78.05299       44.94796       57.69074
H         76.64052       43.18273       55.66745
H         77.30405       45.25124       54.52734
H         78.42024       43.93052       54.04915
N         78.65513       41.49134       55.54994
C         79.51081       40.36518       55.86766
C         79.08757       39.70370       57.16770
O         77.94509       39.27185       57.23147
H         78.11932       41.46618       54.66912
H         80.54326       40.73372       55.88491
H         79.43794       39.60949       55.05597
N         79.89857       39.56553       58.26252
C         81.30221       39.97665       58.36527
C         81.65600       40.33822       59.80925
O         81.15840       39.69508       60.72256
C         82.23654       38.84004       57.89792
C         82.22845       38.66048       56.40137
N         81.78602       37.51613       55.83432
O         82.64964       39.56110       55.68963
H         79.48489       39.08295       59.07662
H         81.47813       40.88120       57.76341
H         81.95211       37.90279       58.42377
H         83.28820       39.07235       58.17176
H         81.43130       36.74146       56.41194
H         81.79238       37.41010       54.80861
N         82.56027       41.31637       60.11816
C         83.29257       42.07375       59.11509
C         84.25382       43.05140       59.74050
O         85.12141       42.62373       60.49022
H         82.75499       41.49801       61.11620
H         82.58383       42.62118       58.46889
H         83.88179       41.37383       58.48449
N         84.16688       44.38644       59.46294
C         85.09569       45.37409       60.00553
C         84.67194       46.78820       59.62033
O         84.28119       46.99431       58.47845
C         86.53507       45.12566       59.48107
C         87.55434       45.84048       60.33464
C         88.36236       46.86529       59.81773
C         87.70957       45.45596       61.67886
C         89.30230       47.50091       60.64063
C         88.64539       46.08882       62.49556
C         89.44452       47.11691       61.98070
O         90.34689       47.74121       62.76388
H         83.40445       44.70431       58.84797
H         85.07115       45.27141       61.11203
H         86.59336       45.42530       58.41044
H         86.81188       44.05388       59.52390
H         88.26126       47.17778       58.78638
H         87.10675       44.65798       62.09523
H         89.91527       48.29774       60.23987
H         88.74688       45.77697       63.52770
H         90.46710       47.50511       63.69535
N         84.76884       47.82196       60.50756
C         84.37818       49.20368       60.18388
C         85.13099       49.73561       58.94820
O         86.06769       49.09577       58.49686
C         84.50501       50.12486       61.46040
C         85.94825       50.56044       61.83649
C         83.65190       51.40175       61.37423
C         86.88220       49.43108       62.23775
H         85.10559       47.60058       61.45560
H         83.30012       49.14162       59.91893
H         84.05830       49.55822       62.30814
H         85.89658       51.24348       62.71312
H         86.40216       51.12830       60.99444
H         82.60957       51.15515       61.10185
H         83.62289       51.90115       62.36606
H         84.07056       52.14790       60.67700
H         87.86670       49.85477       62.53010
H         86.46583       48.87555       63.10472
H         87.04352       48.75106       61.38586
N         84.75085       50.90042       58.34166
C         85.38033       51.44669       57.13773
C         84.31698       51.79931       56.09957
O         83.14042       51.62913       56.36731
C         86.18499       52.69970       57.51577
O         85.33452       53.69378       58.01664
H         83.96824       51.42997       58.73211
H         86.09120       50.71414       56.69879
H         86.72541       53.07363       56.61647
H         86.94060       52.43376       58.28681
H         85.80417       54.55952       57.89728
N         84.67096       52.34664       54.89731
C         83.71166       52.80998       53.89674
C         82.85542       53.93650       54.45858
O         81.63559       53.82827       54.47758
C         82.87943       51.64383       53.34198
H         85.66952       52.47634       54.68481
H         84.28188       53.23165       53.03904
H         82.20910       52.00578       52.53314
H         83.55085       50.86774       52.91814
H         82.24877       51.18322       54.12775
N         83.45885       55.06383       54.94068
C         82.77136       56.23797       55.48049
C         81.99983       55.98866       56.77155
O         81.43511       56.94517       57.28580
C         81.84569       56.86077       54.42258
H         84.48888       55.11203       54.89714
H         83.54845       56.99674       55.72327
H         82.41745       57.08538       53.49847
H         81.00175       56.18663       54.16972
H         81.41361       57.81216       54.80137
N         81.90606       54.75960       57.35695
C         81.10034       54.52804       58.54776
C         81.71137       55.27077       59.72121
O         81.05485       56.13489       60.28499
C         80.94116       53.00967       58.79099
C         79.83950       52.69061       59.81141
C         79.55605       51.21380       59.85605
O         80.41527       50.42617       60.21309
O         78.34442       50.75082       59.49191
H         82.37970       53.95567       56.93418
H         80.07719       54.91578       58.33958
H         81.90598       52.54457       59.08053
H         80.61940       52.55726       57.82582
H         78.90472       53.20306       59.49407
H         80.11856       53.05783       60.82131
N         82.99785       55.02124       60.09529
C         83.69933       55.76346       61.12372
H         84.59174       56.24937       60.67236
H         83.07104       56.55763       61.57840
H         84.03768       55.07066       61.92115
H         83.52581       54.28965       59.60237
Ca        82.11722       46.59595       55.66024
O         81.07967       44.73986       57.79481
H         80.72148       44.22741       58.56071
H         81.31364       44.05502       57.11965
O         84.65911       48.21940       55.84027
H         85.45251       47.70900       56.14107
H         84.91037       48.56735       54.94884
O         81.86860       49.15573       57.40360
H         81.84105       49.97598       57.95634
H         81.73283       49.47451       56.47698
O         81.74408       48.62528       53.71269
H         80.92755       48.96471       54.15850
H         81.46257       48.43944       52.78290
O         84.13341       44.61822       55.99000
H         84.55128       44.94681       55.15427
H         84.76872       43.94864       56.34534
O         80.22361       47.18084       58.94144
H         80.75775       47.79745       59.50170
H         79.37088       47.65757       58.78201

Ca 1.0



