%chk=apoCaM-CA-Ng.loop2.water4.frame1081.chk
%nprocshared=20
%mem=10GB
%nosave
#b3lyp/svp scf=(tight,noincore,xqc) Test 
#IOP(5/87=12) Density=Current Pop=(MK,readradii) iop(6/33=2) iop(6/42=6)

apoCaM-CA-Ng.loop2.water4.frame1081 

   -2  1 
C         37.95292       74.11383       43.54440
C         36.69184       74.62529       42.90136
O         36.25902       74.03571       41.92220
H         38.74323       74.89185       43.52018
H         37.74064       73.82599       44.59662
H         38.32976       73.21504       43.01155
N         35.99808       75.69249       43.39232
C         36.39956       76.47593       44.55677
C         36.45986       77.95290       44.17966
O         37.08479       78.25048       43.17102
C         35.48741       76.08990       45.74358
C         34.01315       76.21117       45.44476
O         33.31625       75.20972       45.42040
O         33.44960       77.40718       45.20653
H         35.11056       75.94404       42.92882
H         37.43022       76.21497       44.86908
H         35.75110       76.66324       46.65622
H         35.69419       75.01969       45.96722
N         35.86156       78.93389       44.92444
C         35.84663       80.34474       44.56208
C         35.14331       80.52483       43.23696
O         35.73705       81.03902       42.29739
C         37.26003       80.94994       44.57688
H         35.37285       78.69379       45.79469
H         35.25924       80.90135       45.32665
H         37.71580       80.81924       45.58007
H         37.92121       80.48644       43.81726
H         37.20032       82.03952       44.36218
N         33.84251       80.13684       43.10335
C         33.11800       80.31164       41.85154
C         31.61454       80.28156       42.02711
O         31.12060       80.02689       43.11495
C         33.64712       79.31920       40.77238
C         33.54981       77.80965       40.95339
O         34.16523       77.12470       40.15138
O         32.83367       77.14826       41.89190
H         33.35938       79.75976       43.93204
H         33.31664       81.34539       41.49302
H         34.73029       79.52586       40.66000
H         33.19647       79.55759       39.78728
N         30.81772       80.55999       40.96121
C         29.38142       80.36052       40.96978
C         29.03589       79.14611       40.13331
O         27.87144       78.77482       40.09548
H         31.25622       80.82817       40.06688
H         28.86630       81.27295       40.60233
H         29.01340       80.15302       41.99837
N         30.00730       78.44074       39.47351
C         29.77279       77.17548       38.79868
C         29.42693       76.12093       39.83258
O         29.45298       76.41215       41.02246
C         31.06068       76.73694       38.05362
C         31.53331       77.71945       37.00366
N         32.69261       77.49056       36.34533
O         30.88589       78.72498       36.74856
H         30.97718       78.77395       39.47575
H         28.94474       77.29226       38.06547
H         30.90228       75.75889       37.55751
H         31.87406       76.61622       38.80193
H         33.26020       76.65649       36.55512
H         33.03156       78.15522       35.63402
N         29.11048       74.85640       39.44956
C         28.81964       73.80852       40.40645
C         27.38911       73.35703       40.23532
O         26.51413       74.20835       40.30366
H         29.07508       74.62229       38.44588
H         28.93266       74.16266       41.44943
H         29.57484       73.01868       40.25914
N         27.02641       72.06335       40.00717
C         27.94307       70.93361       40.00674
C         28.38850       70.64718       38.59328
O         27.55043       70.34419       37.75576
C         27.26512       69.70607       40.65464
C         28.20909       68.49858       40.71379
O         26.87374       70.04482       41.96152
H         26.02265       71.86641       39.86470
H         28.81739       71.13972       40.65410
H         26.37029       69.43514       40.04401
H         26.05063       69.52880       42.16488
H         29.11727       68.74553       41.30456
H         27.69271       67.64151       41.19410
H         28.51752       68.18771       39.69317
N         29.71169       70.69599       38.26862
C         30.21717       70.24683       36.98121
C         30.44123       68.73832       37.08050
O         31.29800       68.34331       37.85887
C         31.52420       71.01130       36.59911
C         31.20250       72.51519       36.37695
C         32.17412       70.39929       35.33829
C         32.43347       73.38523       36.11536
H         30.39526       70.91251       39.01035
H         29.50263       70.52218       36.18804
H         32.25137       70.90946       37.43556
H         30.70203       72.92203       37.28131
H         30.50210       72.62378       35.51867
H         32.42696       69.33120       35.50291
H         31.49292       70.47425       34.46487
H         33.13395       70.89665       35.09709
H         32.95956       73.08991       35.18641
H         32.11536       74.43892       35.98475
H         33.13307       73.32823       36.97510
N         29.76145       67.81204       36.33637
C         28.66343       68.10726       35.41984
C         29.16300       68.25475       33.99895
O         30.31033       67.93352       33.71719
C         27.51532       67.08897       35.58334
C         27.93501       65.66661       35.32822
O         27.83875       64.75286       36.31369
O         28.35535       65.32986       34.23320
H         30.06004       66.82792       36.42296
H         28.20072       69.07139       35.67338
H         26.67806       67.34680       34.89981
H         27.13462       67.16242       36.62635
N         28.36253       68.84877       33.06935
C         28.80600       69.14878       31.71308
C         27.76324       70.02496       31.01423
O         26.61413       69.60002       30.99307
C         28.99731       67.85260       30.88515
C         29.75615       68.17203       29.61952
C         29.11367       68.22569       28.37179
C         31.13249       68.45515       29.69743
C         29.83752       68.57543       27.22513
C         31.85233       68.79140       28.54938
C         31.20448       68.85731       27.31431
H         27.42980       69.16986       33.37399
H         29.78143       69.66598       31.78313
H         27.99886       67.41147       30.66833
H         29.57432       67.07684       31.43084
H         28.05327       68.02431       28.28955
H         31.64552       68.41704       30.65089
H         29.33850       68.63535       26.26686
H         32.91066       69.00781       28.62034
H         31.76252       69.12917       26.42766
N         28.04819       71.20325       30.36229
C         29.38574       71.73452       30.10507
C         30.01486       72.46026       31.29454
O         29.88388       71.98794       32.41412
C         29.17073       72.65888       28.88523
C         27.91550       72.09055       28.24649
C         27.08310       71.83608       29.48855
H         30.02031       70.88990       29.77919
H         28.87702       73.67459       29.23077
H         30.05143       72.75656       28.21484
H         27.43576       72.76112       27.50283
H         28.15316       71.11360       27.76794
H         26.77191       72.80601       29.93913
H         26.17441       71.23343       29.27594
N         30.77951       73.58365       31.11767
C         31.44882       74.27065       32.21768
C         32.56919       75.16915       31.68430
O         32.56170       76.36284       31.94314
C         30.41486       75.00801       33.12478
C         29.63016       76.18117       32.48858
C         28.80853       75.78395       31.29864
O         27.83053       74.86837       31.42707
O         29.00877       76.30709       30.21345
H         30.96084       73.92532       30.16274
H         31.96173       73.51088       32.84733
H         30.95697       75.41573       34.00490
H         29.68218       74.26964       33.51282
H         30.31454       77.00263       32.20081
H         28.94258       76.59858       33.25499
N         33.60355       74.68590       30.93287
C         33.80904       73.29685       30.56761
H         34.79884       72.96579       30.94410
H         33.05197       72.60931       30.98594
H         33.79759       73.20254       29.46149
H         34.31274       75.35551       30.59556
Ca        31.25800       77.43720       43.48377
O         28.84990       78.27342       45.18569
H         28.45092       77.71269       45.89729
H         28.10415       78.44473       44.55740
O         31.58121       74.11796       42.50783
H         32.02561       73.53304       43.17172
H         32.08972       73.97514       41.67021
O         30.57116       75.63526       46.56999
H         31.29302       75.33130       47.17559
H         29.92390       76.08551       47.16806
O         28.30090       75.28384       43.94266
H         27.62513       75.58286       44.60107
H         27.90323       74.47288       43.53800

Ca 1.0



