%chk=apoCaM-CA-Ng.loop2.water2.frame829.chk
%nprocshared=20
%mem=10GB
%nosave
#b3lyp/svp scf=(tight,noincore,xqc) Test 
#IOP(5/87=12) Density=Current Pop=(MK,readradii) iop(6/33=2) iop(6/42=6)

apoCaM-CA-Ng.loop2.water2.frame829 

   -2  1 
C         64.68357       72.29865       90.18631
C         64.65414       71.02042       89.40919
O         65.23672       70.03585       89.84352
H         63.63883       72.60370       90.40289
H         65.22648       72.16722       91.14605
H         65.18132       73.09358       89.59194
N         63.98052       70.96854       88.22725
C         63.87062       69.74750       87.44193
C         62.88331       68.77712       88.08659
O         62.86037       67.61414       87.70810
C         63.41995       70.10388       86.01200
C         63.67164       68.99985       85.02762
O         64.93135       68.57166       84.81326
O         62.75351       68.52571       84.37953
H         63.53178       71.83067       87.88131
H         64.89075       69.30185       87.39110
H         64.01408       70.97263       85.65811
H         62.34710       70.40331       86.02505
N         61.98500       69.21322       89.02304
C         61.02282       68.33987       89.68485
C         59.86776       69.15321       90.26759
O         60.12476       70.22580       90.79848
C         61.73862       67.57616       90.79848
H         61.96797       70.21440       89.26191
H         60.63466       67.62438       88.94084
H         62.56259       66.96891       90.37459
H         62.14269       68.28078       91.55371
H         61.05891       66.88986       91.32386
N         58.56061       68.75448       90.23420
C         58.06179       67.45164       89.78546
C         56.64635       67.54084       89.26538
O         55.94114       68.48056       89.57949
C         58.12839       66.38938       90.92108
C         57.63330       66.81020       92.28469
O         57.18395       67.92223       92.49803
O         57.74293       65.94160       93.30571
H         57.88048       69.40605       90.65718
H         58.63793       67.08945       88.91626
H         59.16923       66.08382       91.06437
H         57.57569       65.47377       90.62043
N         56.16424       66.55161       88.46237
C         54.78212       66.44354       88.02918
C         54.23444       65.09842       88.46958
O         54.11071       64.23067       87.61845
H         56.81581       65.82012       88.13458
H         54.76705       66.50513       86.91935
H         54.13982       67.26277       88.39850
N         53.92221       64.79331       89.76698
C         53.94814       65.74578       90.86755
C         52.71929       66.66784       90.76414
O         51.59334       66.19887       90.85549
C         53.99709       64.99438       92.21770
C         54.28529       65.92145       93.40749
N         53.78199       65.37606       94.67781
O         53.83626       67.22197       93.18351
H         53.63232       63.82414       89.97376
H         54.89640       66.31209       90.81846
H         54.82797       64.25397       92.21211
H         53.04743       64.43334       92.34696
H         52.97476       64.72758       94.54084
H         53.40324       66.14488       95.26817
N         52.89148       67.99480       90.52383
C         51.84644       68.96858       90.25594
C         51.08255       69.39381       91.47868
O         49.88428       69.61078       91.38327
H         53.84611       68.34138       90.44846
H         51.17757       68.62587       89.43849
H         52.35265       69.89076       89.89583
N         51.74110       69.62720       92.64283
C         51.10574       70.08095       93.87768
C         52.12750       70.80329       94.76084
O         53.30788       70.80743       94.43624
C         50.47416       68.86838       94.62414
C         49.18496       68.35463       94.00279
O         51.36145       67.78895       94.62998
H         52.75092       69.44102       92.65168
H         50.34580       70.85891       93.65042
H         50.20242       69.16201       95.66486
H         52.02866       67.99886       95.31021
H         48.79888       67.51783       94.62350
H         48.42648       69.16216       93.97096
H         49.36435       67.94076       92.99297
N         51.73541       71.46658       95.89310
C         52.69272       72.12275       96.78039
C         52.67945       71.35490       98.08800
O         51.69379       71.39254       98.80970
C         52.43108       73.65486       96.91474
C         53.47803       74.36462       97.81657
C         52.38269       74.32131       95.52240
C         54.93270       74.13381       97.41413
H         50.73759       71.47715       96.15323
H         53.70363       72.02602       96.33779
H         51.43855       73.83548       97.38323
H         53.36440       74.01798       98.86543
H         53.27630       75.45848       97.80449
H         51.48236       73.98077       94.96763
H         52.31048       75.42756       95.61343
H         53.28017       74.07573       94.91724
H         55.59927       74.74433       98.05518
H         55.19103       73.07309       97.58671
H         55.11788       74.39865       96.35276
N         53.73379       70.54679       98.38907
C         53.73731       69.52213       99.43490
C         54.65213       69.88564      100.59124
O         54.91126       69.03043      101.42671
C         54.21483       68.19926       98.80813
C         53.44111       67.91621       97.58748
O         52.25913       67.61260       97.64054
O         54.05565       68.10107       96.41501
H         54.54002       70.55967       97.75473
H         52.70952       69.35768       99.82650
H         54.13352       67.32893       99.49210
H         55.28027       68.30749       98.50315
N         55.12746       71.15461      100.73850
C         55.88931       71.61461      101.89663
C         56.83746       72.74357      101.47972
O         56.38265       73.63202      100.77030
C         54.88400       72.13067      102.95458
C         55.53350       72.88072      104.09983
C         55.72487       74.26969      103.98299
C         55.94262       72.23241      105.27888
C         56.31983       74.99635      105.01461
C         56.53911       72.96748      106.31391
C         56.72833       74.34683      106.17984
H         54.77486       71.87520      100.09215
H         56.44614       70.77156      102.35178
H         54.27940       71.28091      103.34347
H         54.15911       72.81903      102.46863
H         55.41363       74.79090      103.08656
H         55.80329       71.16564      105.39883
H         56.46246       76.06401      104.90802
H         56.85661       72.47151      107.22212
H         57.19030       74.91470      106.97749
N         58.13358       72.85305      101.93443
C         58.95755       74.03307      101.68541
C         59.56203       74.08497      100.27924
O         60.42871       74.91997      100.05734
C         60.06594       73.98369      102.75901
C         59.62126       72.90714      103.73587
C         58.77283       71.97279      102.89150
H         58.35759       74.94995      101.88291
H         61.03276       73.67695      102.31236
H         60.20626       74.96232      103.27871
H         60.46726       72.41331      104.26688
H         58.95247       73.37731      104.48439
H         59.43424       71.28739      102.32136
H         58.09255       71.39748      103.55047
N         59.17599       73.23119       99.28239
C         59.75511       73.27044       97.93746
C         59.53669       74.59798       97.22342
O         60.23181       74.84676       96.24695
C         59.20904       72.13362       97.03355
C         57.67950       72.16835       96.86341
C         57.20683       71.09331       95.93723
O         57.53783       71.09178       94.76313
O         56.40119       70.12654       96.40007
H         58.46206       72.52523       99.48803
H         60.85188       73.11693       98.04709
H         59.49365       71.14988       97.46317
H         59.68367       72.21911       96.03000
H         57.35114       73.14754       96.45960
H         57.19142       72.00290       97.84512
N         58.55177       75.46378       97.59042
C         58.28707       76.67475       96.84348
H         57.41045       77.20228       97.27436
H         59.16901       77.34856       96.87469
H         58.05489       76.41967       95.78614
H         57.93829       75.24360       98.38705
Ca        55.14333       68.43614       94.52029
O         57.35584       67.58440       96.18878
H         57.79833       67.20633       95.39137
H         57.36079       66.85174       96.85184
O         54.90959       70.27021       91.90091
H         55.44986       69.45425       91.77725
H         55.53897       71.01224       91.73539

Ca 1.0



