%chk=apoCaM-CA-Ng.loop3.water3.frame239.chk
%nprocshared=20
%mem=10GB
%nosave
#b3lyp/svp scf=(tight,noincore,xqc) Test 
#IOP(5/87=12) Density=Current Pop=(MK,readradii) iop(6/33=2) iop(6/42=6)

apoCaM-CA-Ng.loop3.water3.frame239 

   0  1 
C         30.69694       49.08513       98.08589
C         31.65876       49.97127       98.82358
O         32.10068       50.95430       98.24743
H         29.79916       49.67308       97.79843
H         31.17872       48.69287       97.16605
H         30.37033       48.22816       98.71087
N         32.02885       49.68746      100.10985
C         32.92526       50.52378      100.91097
C         34.34145       50.59645      100.34216
O         35.11257       51.42975      100.79693
C         32.31668       51.93099      101.11647
C         30.95636       51.84576      101.75277
O         29.97979       52.30151      101.17976
O         30.80931       51.26632      102.96001
H         31.63834       48.84659      100.56146
H         33.02499       50.07508      101.92436
H         32.24740       52.47686      100.15264
H         32.97151       52.52497      101.78955
N         34.77124       49.71873       99.38981
C         36.09928       49.75214       98.78388
C         35.94426       49.92556       97.28889
O         36.51121       50.85635       96.73333
C         36.87131       48.45535       99.11686
C         38.29725       48.39705       98.51916
C         39.22974       49.50284       99.05445
C         40.63660       49.47898       98.43134
N         41.38238       48.26268       98.75599
H         34.13098       48.97416       99.08555
H         36.67889       50.60679       99.18576
H         36.30046       47.58105       98.73428
H         36.94355       48.35171      100.22140
H         38.23947       48.46224       97.41112
H         38.72249       47.40602       98.78174
H         39.31008       49.42340      100.16049
H         38.80717       50.49606       98.80449
H         41.19895       50.35509       98.82557
H         40.56217       49.59276       97.32704
H         40.93101       47.42442       98.32739
H         42.34838       48.34730       98.36424
H         41.44972       48.14704       99.79312
N         35.14395       49.07575       96.58313
C         34.87695       49.19855       95.15715
C         34.38431       50.60969       94.86165
O         33.43419       51.05377       95.49233
C         33.84348       48.11506       94.75264
C         33.66793       47.95305       93.27106
O         33.95933       46.77436       92.68792
O         33.23225       48.86247       92.59201
H         34.66899       48.31785       97.09498
H         35.82178       48.99722       94.60497
H         32.86018       48.32750       95.22734
H         34.20044       47.13374       95.13552
N         35.02412       51.38582       93.93847
C         34.70012       52.78281       93.65112
C         33.33587       53.03299       93.02230
O         33.08018       54.16124       92.62760
H         35.82621       50.97911       93.43216
H         35.45053       53.14710       92.91382
H         34.80876       53.39178       94.57224
N         32.42590       52.03755       92.86153
C         31.17722       52.14153       92.11829
C         30.39719       50.85027       92.35126
O         30.16376       50.07604       91.43570
C         31.46825       52.43512       90.61819
C         32.84845       51.95268       90.12297
N         32.99580       52.06003       88.67726
O         33.23040       50.69135       90.58858
H         32.64706       51.11015       93.22339
H         30.52519       52.94992       92.51733
H         31.50838       53.53740       90.48457
H         30.63037       52.07778       89.98110
H         32.83997       53.05740       88.40388
H         33.98716       51.83226       88.43652
N         29.98240       50.56778       93.61939
C         29.34284       49.32956       94.03170
C         28.02836       49.02857       93.34874
O         27.59967       49.74799       92.45711
H         30.17691       51.25860       94.36112
H         29.15110       49.38810       95.12565
H         30.03776       48.48181       93.85130
N         27.32476       47.93588       93.75706
C         26.07631       47.49464       93.13662
C         26.34941       46.93367       91.74831
O         27.50637       46.83312       91.36483
C         25.40668       46.43290       94.03939
C         25.03439       47.03595       95.37326
C         24.01375       47.99887       95.44340
C         25.70362       46.65865       96.54996
C         23.67085       48.57908       96.66661
C         25.36646       47.24977       97.77243
C         24.34808       48.21302       97.83361
O         24.01400       48.79410       99.00338
H         27.69997       47.39888       94.55507
H         25.39006       48.36442       93.04081
H         26.12225       45.59062       94.17432
H         24.48106       46.02502       93.58090
H         23.48048       48.29716       94.54928
H         26.49750       45.92265       96.52039
H         22.88053       49.31809       96.70502
H         25.89927       46.96171       98.66992
H         24.46441       48.57925       99.83244
N         25.32138       46.57842       90.92056
C         25.54072       46.11033       89.55561
C         25.09215       47.21633       88.60751
O         25.92557       47.68107       87.84216
C         24.85599       44.73492       89.24336
C         25.30601       43.55032       90.14595
C         25.20455       44.30410       87.79902
C         24.86153       43.60979       91.60077
H         24.35200       46.70766       91.24713
H         26.62775       45.95103       89.37496
H         23.75179       44.84704       89.32096
H         26.41138       43.43320       90.10122
H         24.84959       42.61787       89.74323
H         24.92430       45.05602       87.05126
H         26.29774       44.13546       87.69192
H         24.67327       43.36560       87.53034
H         25.35429       44.43203       92.13454
H         23.75735       43.70716       91.66600
H         25.16477       42.66964       92.10946
N         23.82132       47.73007       88.62042
C         23.41700       48.79798       87.69948
C         23.31404       48.30506       86.25906
O         23.29307       49.12689       85.35515
C         22.10164       49.46012       88.12724
O         21.05181       48.53398       88.09205
H         23.14826       47.38348       89.32074
H         24.20003       49.58898       87.74974
H         21.88236       50.30624       87.43592
H         22.22198       49.85742       89.15993
H         20.23911       49.03607       88.36105
N         23.27787       46.96980       85.97998
C         23.34989       46.38423       84.64705
C         24.60092       46.86201       83.92899
O         24.53609       47.22219       82.75912
C         22.06355       46.63227       83.85105
H         23.24489       46.30689       86.76168
H         23.44459       45.28264       84.78148
H         22.11418       46.10485       82.87398
H         21.19158       46.23663       84.41344
H         21.91051       47.71522       83.66503
N         25.77570       46.95238       84.61087
C         27.01572       47.44393       84.03102
C         28.16371       46.52342       84.38118
O         28.03597       45.76550       85.33020
C         27.29990       48.84689       84.57570
H         25.77533       46.71734       85.61254
H         26.92373       47.50730       82.92494
H         28.23414       49.25945       84.14095
H         26.46006       49.52595       84.31359
H         27.39793       48.82464       85.68331
N         29.34045       46.59778       83.69464
C         30.55718       45.82903       83.97008
C         30.44129       44.35286       83.59867
O         31.15921       43.94899       82.69299
C         31.08589       46.08839       85.39599
C         31.39203       47.58525       85.53862
C         31.93091       47.94556       86.87568
O         31.16225       47.83243       87.96964
O         33.03859       48.45168       86.96897
H         29.39992       47.29027       82.93112
H         31.34346       46.22617       83.28561
H         32.02990       45.51969       85.54858
H         30.36068       45.75824       86.16896
H         30.47376       48.19048       85.38242
H         32.13760       47.87550       84.76558
N         29.58931       43.48440       84.21484
C         29.45499       42.09405       83.82840
H         28.41785       41.91317       83.47460
H         30.15319       41.80605       83.01500
H         29.65358       41.44752       84.70749
H         28.99476       43.78743       84.98782
Ca        31.99114       49.10999       89.58411
O         33.18846       45.67948       89.68210
H         33.91611       45.31066       89.12102
H         32.64081       44.89190       89.92787
O         35.23272       48.27745       90.01568
H         35.63742       47.99067       90.87240
H         35.67237       49.14093       89.81259
O         31.00117       46.65792       91.75383
H         30.10579       46.90238       91.41210
H         30.83459       45.90657       92.37669

Ca 1.0



