%chk=apoCaM-CA-Ng.loop1.water3.frame1341.chk
%nprocshared=20
%mem=10GB
%nosave
#b3lyp/svp scf=(tight,noincore,xqc) Test 
#IOP(5/87=12) Density=Current Pop=(MK,readradii) iop(6/33=2) iop(6/42=6)

apoCaM-CA-Ng.loop1.water3.frame1341 

   0  1 
C         61.15629       24.13103       99.87032
C         59.92413       24.48166      100.64824
O         59.12304       25.27144      100.16768
H         62.05727       24.40730      100.45915
H         61.17109       23.04168       99.66401
H         61.18364       24.68374       98.90649
N         59.73248       23.95640      101.89256
C         58.60304       24.31858      102.74504
C         59.10926       25.17802      103.88328
O         58.85063       24.90792      105.04838
C         57.82307       23.06270      103.20265
C         58.59646       22.08036      104.05671
O         59.75860       22.27897      104.37549
O         57.98118       20.96467      104.49030
H         60.46048       23.33182      102.26890
H         57.89141       24.95915      102.17890
H         57.46340       22.52730      102.29832
H         56.93405       23.39117      103.78337
N         59.88674       26.24896      103.57867
C         60.46741       27.13533      104.57061
C         59.38423       27.90860      105.28386
O         59.35499       27.82409      106.50415
C         61.58215       27.99997      103.94028
C         62.72893       27.05288      103.52207
C         63.91168       27.74240      102.84947
C         64.98517       26.68566      102.53108
N         66.12564       27.27114      101.83367
H         60.10558       26.41979      102.58588
H         60.98642       26.52317      105.34446
H         61.97556       28.71494      104.69575
H         61.20540       28.58003      103.07221
H         62.34772       26.28492      102.81565
H         63.09910       26.53072      104.43324
H         64.33637       28.51678      103.52429
H         63.56623       28.22572      101.91007
H         64.54583       25.88473      101.89375
H         65.33541       26.21742      103.47932
H         65.81462       27.67154      100.91923
H         66.56423       28.01540      102.42211
H         66.83051       26.51994      101.65172
N         58.39423       28.61542      104.67182
C         58.16909       28.81725      103.23699
C         56.94092       28.02916      102.80511
O         56.36807       27.32816      103.62799
C         58.07214       30.33481      102.95071
C         57.23658       31.04860      103.98240
O         55.92074       30.78732      104.13542
O         57.79381       31.80347      104.76214
H         57.67786       29.00203      105.30642
H         58.99390       28.42210      102.61809
H         57.72130       30.55049      101.91870
H         59.10550       30.74188      103.02720
N         56.50979       28.04813      101.50868
C         55.43261       27.19169      101.02836
C         54.20076       27.97369      100.65905
O         54.18064       29.18433      100.79838
H         56.97459       28.66317      100.82353
H         55.12644       26.45677      101.80120
H         55.79726       26.61632      100.14922
N         53.09395       27.30755      100.22928
C         51.83328       27.96238       99.87975
C         51.39681       27.52348       98.48332
O         52.00726       26.60679       97.95046
C         50.78822       27.55185      100.93814
C         51.21344       27.98348      102.31369
O         51.36828       29.16773      102.56556
O         51.42840       27.06351      103.27349
H         53.13382       26.27655      100.18973
H         51.95743       29.06589       99.88496
H         50.67075       26.44538      100.92384
H         49.79954       27.99685      100.74192
N         50.36080       28.08107       97.78704
C         49.57683       29.25005       98.15132
C         50.40825       30.50880       98.10947
O         51.08696       30.73448       97.11771
H         50.12591       27.65483       96.87619
H         49.03857       29.12045       99.10766
H         48.79094       29.37968       97.37540
N         50.33859       31.42106       99.11697
C         51.05143       32.69549       99.07931
C         52.52045       32.49185       99.43718
O         52.81787       31.90195      100.46211
C         50.35765       33.74105       99.98360
C         48.94827       34.06175       99.44589
O         51.11546       34.92351       99.98105
H         49.68909       31.23674       99.89787
H         50.98087       33.12833       98.05508
H         50.29115       33.33944      101.02005
H         50.76108       35.49045      100.71459
H         48.45366       34.82183      100.08625
H         49.01479       34.47490       98.41429
H         48.30537       33.15789       99.41962
N         53.48518       32.98526       98.60939
C         54.93745       32.84661       98.74437
C         55.50643       33.45451      100.04318
O         55.98892       32.59625      101.03199
C         55.44107       31.38799       98.53859
C         54.77847       30.73882       97.30079
C         56.98469       31.36519       98.42468
C         55.19565       29.28510       97.07128
H         53.16876       33.51467       97.78264
H         55.36962       33.45023       97.91567
H         55.15034       30.79860       99.42184
H         55.00369       31.33308       96.38989
H         53.67977       30.73160       97.45294
H         57.31309       31.92505       97.52411
H         57.47953       31.81935       99.30528
H         57.37001       30.32848       98.37451
H         54.62038       28.86872       96.21899
H         56.27123       29.21124       96.81402
H         54.98761       28.67305       97.97354
N         55.00367       34.74498      100.51169
C         55.66039       35.24870      101.74411
C         54.97632       36.51174      102.24623
O         55.42780       37.02361      103.25942
C         57.21028       35.47609      101.62050
C         57.61037       36.44662      100.51228
O         57.90060       34.27039      101.42300
H         55.12289       35.43191       99.73306
H         55.50799       34.50887      102.56252
H         57.58040       35.92231      102.57548
H         57.95778       33.81957      102.30774
H         57.32998       36.04360       99.51780
H         57.13296       37.43574      100.66617
H         58.71390       36.58147      100.52787
N         53.87975       37.05876      101.63004
C         53.18010       38.23771      102.14265
C         52.63767       37.90585      103.52550
O         51.62299       37.22972      103.62524
C         52.05909       38.65186      101.15299
C         51.28592       39.89193      101.60116
O         52.63594       38.90728       99.89618
H         53.51051       36.61835      100.77654
H         53.91395       39.07242      102.20949
H         51.34191       37.80029      101.07501
H         51.97922       38.62454       99.20682
H         51.96707       40.76424      101.68336
H         50.49889       40.12157      100.85034
H         50.78920       39.71656      102.57769
N         53.39014       38.20381      104.62716
C         53.15891       37.70096      105.98171
C         53.16594       36.17667      106.02327
O         53.04151       35.54162      104.98713
C         51.88401       38.28036      106.61094
C         51.93887       39.81366      106.64993
C         50.66795       40.39348      107.27265
C         50.71444       41.92627      107.27875
N         49.48442       42.48114      107.84060
H         54.25013       38.75730      104.49248
H         54.02588       38.03616      106.59614
H         51.78547       37.89725      107.65088
H         50.99474       37.95105      106.03257
H         52.04034       40.20589      105.61430
H         52.82360       40.13792      107.24231
H         50.56130       40.02141      108.31546
H         49.78898       40.05878      106.67968
H         50.83848       42.29772      106.23679
H         51.58498       42.27182      107.88022
H         49.36307       42.15947      108.82830
H         49.54223       43.52485      107.82659
H         48.66249       42.18041      107.26756
N         53.38915       35.51303      107.19458
C         53.45398       34.05273      107.26562
C         54.39943       33.49241      106.20502
O         53.93264       32.68323      105.41619
C         53.82244       33.54261      108.67608
C         52.75517       33.88011      109.72694
C         53.14107       33.32673      111.06925
O         52.35507       32.41726      111.67624
O         54.16485       33.70176      111.61904
H         53.56582       36.06932      108.04410
H         52.44199       33.64536      107.03604
H         54.79223       33.95743      109.00362
H         53.91331       32.43358      108.63243
H         51.78407       33.43747      109.41521
H         52.62731       34.97794      109.82228
N         55.69539       33.88087      106.03265
C         56.40983       34.84388      106.83979
H         57.43025       34.98465      106.42344
H         55.90205       35.82747      106.82396
H         56.53329       34.47581      107.87338
H         56.20432       33.48326      105.23426
Ca        54.63223       31.65294      102.53941
O         52.34358       33.56616      102.89064
H         51.80883       33.48254      103.71872
H         52.06175       34.43102      102.50286
O         51.35990       31.08313      104.87237
H         50.46194       31.33895      104.54269
H         51.19081       30.34161      105.50572
O         53.78898       28.90152      104.79485
H         52.98339       28.44010      105.13784
H         53.91179       28.54273      103.88023

Ca 1.0



