%chk=apoCaM-CA-Ng.loop1.water4.frame397.chk
%nprocshared=20
%mem=10GB
%nosave
#b3lyp/svp scf=(tight,noincore,xqc) Test 
#IOP(5/87=12) Density=Current Pop=(MK,readradii) iop(6/33=2) iop(6/42=6)

apoCaM-CA-Ng.loop1.water4.frame397 

   0  1 
C        -12.90630       81.75810       23.59880
C        -11.97125       80.90993       22.79167
O        -10.88204       81.37312       22.48396
H        -13.85525       81.22458       23.81520
H        -12.42256       82.03266       24.55897
H        -13.14205       82.68274       23.03084
N        -12.33791       79.65875       22.39240
C        -11.48608       78.80901       21.57009
C        -12.11953       78.62484       20.20495
O        -12.34433       77.50614       19.76839
C        -11.14246       77.49647       22.31479
C        -12.29492       76.59042       22.68230
O        -12.03982       75.44412       23.34163
O        -13.44837       76.86763       22.39568
H        -13.27192       79.31211       22.65550
H        -10.51862       79.31352       21.37425
H        -10.60747       77.76068       23.25261
H        -10.44613       76.92277       21.67970
N        -12.45377       79.73001       19.48089
C        -13.08835       79.69035       18.17054
C        -12.40255       80.64907       17.20448
O        -12.20318       81.79074       17.59938
C        -14.55136       80.15745       18.29315
C        -15.42412       79.18085       19.09546
C        -16.91000       79.58042       19.08394
C        -17.18500       80.92100       19.78517
N        -18.61484       81.22725       19.78108
H        -12.30427       80.65534       19.91180
H        -13.09435       78.66335       17.78412
H        -14.98652       80.22622       17.27336
H        -14.57203       81.17001       18.74774
H        -15.06044       79.10108       20.14229
H        -15.34848       78.17628       18.62251
H        -17.48247       78.78421       19.60702
H        -17.27041       79.62813       18.03203
H        -16.64916       81.74568       19.26991
H        -16.82357       80.86662       20.83582
H        -19.14566       80.48014       20.28464
H        -18.76999       82.13972       20.26763
H        -18.96207       81.30615       18.79738
N        -12.11968       80.36948       15.89244
C        -12.30062       79.10821       15.16919
C        -13.69747       78.52272       15.34246
O        -13.82642       77.44760       15.91162
C        -11.18164       78.10095       15.49684
C         -9.82295       78.62167       15.13079
O         -9.65840       79.86437       14.63945
O         -8.83912       77.93267       15.34789
H        -11.76895       81.15897       15.32662
H        -12.15598       79.31267       14.08745
H        -11.34097       77.17390       14.90520
H        -11.18710       77.84923       16.57764
N        -14.81396       79.12446       14.85498
C        -14.77307       80.30562       14.00988
C        -16.14316       80.67078       13.46081
O        -17.14361       80.17666       13.95834
H        -15.71214       78.65099       15.03167
H        -14.13797       80.03898       13.14260
H        -14.32613       81.17438       14.53818
N        -16.29221       81.47275       12.36653
C        -15.18583       82.05792       11.61734
C        -14.91741       81.25409       10.35838
O        -15.70849       80.38817       10.00481
C        -15.45998       83.54639       11.32190
C        -16.74044       83.76237       10.55488
O        -16.88637       83.28539        9.44064
O        -17.73781       84.48226       11.10367
H        -17.24727       81.58751       11.99213
H        -14.25045       82.01325       12.21120
H        -14.61545       83.98400       10.74780
H        -15.53122       84.08728       12.29024
N        -13.75606       81.44497        9.67371
C        -13.37079       80.67566        8.50225
C        -13.37282       79.19071        8.78675
O        -14.02726       78.45210        8.06513
H        -13.08430       82.14619       10.02401
H        -12.34486       80.97986        8.20006
H        -14.05934       80.90119        7.65934
N        -12.68770       78.69237        9.85279
C        -12.67115       77.27819       10.21452
C        -13.40881       77.07185       11.52241
O        -13.18996       77.81567       12.46029
C        -11.22767       76.71581       10.25927
C        -10.29662       77.41437       11.25707
O        -10.65287       76.80041        8.98099
H        -12.18806       79.35743       10.46207
H        -13.19817       76.66928        9.44719
H        -11.27779       75.64384       10.56903
H        -11.02554       76.04962        8.44724
H        -10.69015       77.34594       12.29089
H         -9.30253       76.91869       11.23855
H        -10.14908       78.48030       10.98838
N        -14.27326       76.02955       11.65947
C        -15.03043       75.73980       12.87687
C        -14.40434       74.57927       13.65500
O        -15.03642       74.06931       14.56883
C        -16.54092       75.51521       12.53802
C        -16.76390       74.33351       11.55239
C        -17.15303       76.82364       12.00041
C        -18.23437       73.94902       11.37256
H        -14.34169       75.36298       10.87827
H        -14.99018       76.59373       13.58470
H        -17.06170       75.27609       13.49204
H        -16.23990       73.43397       11.93906
H        -16.35233       74.57527       10.55009
H        -16.67911       77.12076       11.04072
H        -18.24594       76.72753       11.84366
H        -17.00542       77.64212       12.73609
H        -18.30382       73.08432       10.67839
H        -18.67634       73.65447       12.34745
H        -18.82633       74.77631       10.93266
N        -13.12871       74.16450       13.39524
C        -12.45612       73.05901       14.08442
C        -12.26524       73.24209       15.59636
O        -11.91138       72.26809       16.24581
C        -11.06282       72.80915       13.43908
C        -10.10284       74.00675       13.63282
O        -11.23159       72.55470       12.06792
H        -12.61669       74.63456       12.63897
H        -13.08856       72.15605       13.93209
H        -10.61382       71.91049       13.92063
H        -10.35192       72.25632       11.71762
H         -9.93237       74.21285       14.70726
H         -9.11758       73.78439       13.17438
H        -10.49249       74.93383       13.16603
N        -12.40388       74.45427       16.20885
C        -12.15072       74.73426       17.63078
C        -10.68260       74.50009       18.01328
O         -9.95355       73.88816       17.24698
C        -13.11625       73.95259       18.56455
C        -14.58258       74.13623       18.15575
O        -12.95429       74.39894       19.88661
H        -12.67446       75.25731       15.62835
H        -12.34560       75.82039       17.76562
H        -12.86866       72.86788       18.50660
H        -13.32633       73.69618       20.48143
H        -14.86580       75.20961       18.17703
H        -14.75597       73.73104       17.13867
H        -15.24115       73.57576       18.85336
N        -10.16286       75.01922       19.16968
C         -8.76601       74.83704       19.56858
C         -7.94294       76.11070       19.38428
O         -6.74709       76.04993       19.64211
C         -8.65358       74.45620       21.06808
C         -9.52236       73.29096       21.55626
C         -9.31663       73.11989       23.07501
C        -10.22402       72.04097       23.67462
N        -10.00931       71.92906       25.11931
H        -10.76138       75.60403       19.76503
H         -8.29869       74.03836       18.95242
H         -8.93685       75.34253       21.67002
H         -7.58847       74.23021       21.30050
H         -9.25295       72.35515       21.02172
H        -10.59096       73.52682       21.36317
H         -9.54504       74.08225       23.58572
H         -8.25347       72.86147       23.27701
H        -10.01128       71.06224       23.19233
H        -11.28740       72.30843       23.48508
H        -10.64640       71.19676       25.50758
H         -9.01926       71.65561       25.31776
H        -10.22042       72.84014       25.58900
N         -8.48734       77.30575       18.99684
C         -7.70016       78.54034       18.98071
C         -7.19596       78.82816       20.38228
O         -7.99684       78.96191       21.29719
C         -8.52950       79.73265       18.44383
C         -7.84401       81.11240       18.58980
C         -6.43503       81.23712       18.04303
O         -5.52292       81.47896       18.81662
O         -6.15480       81.17202       16.72521
H         -9.48868       77.35734       18.75711
H         -6.83766       78.41340       18.29018
H         -9.49449       79.79402       18.99545
H         -8.76893       79.54323       17.38423
H         -7.80290       81.34042       19.67723
H         -8.48844       81.88857       18.12415
N         -5.86147       78.94561       20.61462
C         -5.33183       79.23099       21.92801
H         -4.22532       79.31020       21.87737
H         -5.74087       80.19455       22.30002
H         -5.60218       78.41410       22.62967
H         -5.19720       78.84210       19.83267
Ca        -7.65800       80.64939       15.16760
O         -5.23527       82.41594       13.15550
H         -5.31892       83.24624       12.62241
H         -4.53991       82.62264       13.82958
O         -7.45812       80.39144       11.57084
H         -7.08428       79.53474       11.24384
H         -8.18890       80.60133       10.93664
O         -5.48451       79.25888       13.78931
H         -4.70705       79.03466       13.21984
H         -5.12287       79.27925       14.71094
O         -6.67611       84.08331       15.43658
H         -6.21396       83.77542       16.25579
H         -6.02541       84.68981       15.00191

Ca 1.0



