%chk=apoCaM-CA-Ng.loop4.water3.frame429.chk
%nprocshared=20
%mem=10GB
%nosave
#b3lyp/svp scf=(tight,noincore,xqc) Test 
#IOP(5/87=12) Density=Current Pop=(MK,readradii) iop(6/33=2) iop(6/42=6)

apoCaM-CA-Ng.loop4.water3.frame429 

   -3  1 
C         69.54317       62.80628       76.43089
C         68.33951       61.94868       76.67354
O         68.33013       60.81101       76.23117
H         70.30229       62.25623       75.83247
H         69.25017       63.72608       75.88545
H         69.99764       63.08095       77.40599
N         67.29393       62.42275       77.41102
C         66.13118       61.62118       77.77015
C         66.53696       60.41314       78.58210
O         66.52771       59.31372       78.07039
C         65.10475       61.39188       76.61839
C         65.57017       61.09800       75.20367
O         66.17536       59.95929       74.80432
O         65.32483       61.92911       74.34304
H         67.35704       63.37772       77.79496
H         65.51573       62.20468       78.49384
H         64.56547       62.36418       76.53239
H         64.33869       60.65349       76.94095
N         66.89906       60.59088       79.88954
C         67.23930       59.56823       80.88339
C         66.00207       58.77472       81.31344
O         65.61089       58.89488       82.46643
C         68.45760       58.68878       80.48199
C         68.96533       57.80885       81.66277
C         69.60951       59.54973       79.93474
C         69.51049       58.58208       82.87631
H         66.92563       61.56353       80.23416
H         67.55475       60.14410       81.77875
H         68.15325       58.00105       79.66547
H         69.78891       57.16377       81.28835
H         68.14908       57.14001       82.00879
H         69.92060       60.32809       80.66060
H         70.48088       58.90639       79.71132
H         69.31038       60.05643       78.99407
H         69.87948       57.86397       83.63774
H         70.36397       59.23099       82.59222
H         68.72894       59.20102       83.35941
N         65.30237       57.99141       80.44467
C         64.03057       57.36711       80.76895
C         64.19210       56.10489       81.60585
O         63.52004       56.04823       82.62645
C         63.16322       57.17740       79.50431
C         62.76879       58.49262       78.86438
O         62.05452       58.48914       77.87503
O         63.16876       59.67386       79.37947
H         65.62108       57.88963       79.48182
H         63.42201       58.07886       81.37691
H         62.22054       56.66080       79.79075
H         63.69466       56.57274       78.74926
N         65.03736       55.05738       81.34897
C         66.03045       54.92429       80.29130
C         65.47465       54.36642       78.99914
O         64.26485       54.24854       78.87203
H         65.05419       54.30676       82.05801
H         66.74254       54.15041       80.64482
H         66.62466       55.84792       80.16676
N         66.28654       53.90967       77.99529
C         67.75819       53.87854       78.04318
C         68.31979       55.30083       77.97446
O         67.52453       56.20293       77.75915
C         68.27803       53.01468       76.86426
C         67.68146       51.63239       76.87707
O         67.86936       50.82122       77.93536
O         67.02292       51.24051       75.92640
H         65.81480       53.50375       77.17077
H         68.07162       53.38476       78.98601
H         69.36736       52.88028       76.90198
H         68.02824       53.50811       75.90258
N         69.63695       55.65017       78.11705
C         70.78047       54.80758       78.43761
C         70.79737       54.35593       79.87260
O         69.85285       54.61048       80.60687
H         69.85858       56.64850       77.99810
H         71.69200       55.43283       78.33458
H         70.91252       53.97573       77.72985
N         71.90678       53.72108       80.35240
C         72.07167       53.33966       81.74943
C         73.21313       54.09889       82.43888
O         73.32852       53.95655       83.64815
C         72.14860       51.80186       81.88774
C         73.22076       51.07913       81.05268
C         74.61869       51.48917       81.39623
N         75.08429       51.35507       82.65728
O         75.34475       51.93487       80.52218
H         72.68133       53.52808       79.69862
H         71.16818       53.63971       82.32501
H         71.17024       51.39058       81.55618
H         72.25906       51.54002       82.96204
H         73.03295       51.24699       79.97012
H         73.12863       49.98791       81.23925
H         74.49320       50.97010       83.40694
H         76.03908       51.64361       82.88793
N         74.02757       54.98245       81.77701
C         74.93895       55.90587       82.46650
C         76.41385       55.75646       82.09152
O         77.19823       56.52267       82.63801
C         74.47262       57.38152       82.23828
C         73.12628       57.64931       82.92439
C         74.39004       57.77435       80.75050
H         73.94356       55.07690       80.75748
H         74.91289       55.73168       83.56493
H         75.20799       58.05982       82.72661
H         72.32193       57.01645       82.49501
H         73.20734       57.44140       84.01313
H         72.84480       58.71783       82.80563
H         74.13384       58.85136       80.65620
H         75.36248       57.60507       80.24323
H         73.59957       57.20259       80.22046
N         76.89199       54.81554       81.22376
C         78.31629       54.71173       80.88985
C         78.59392       54.86797       79.39963
O         79.76537       54.86862       79.05152
C         78.90921       53.35717       81.34914
C         78.84665       53.11512       82.83684
N         79.41415       53.97340       83.71473
O         78.31240       52.10211       83.25568
H         76.23746       54.14968       80.79797
H         78.89302       55.51917       81.38992
H         79.98595       53.32553       81.07256
H         78.39553       52.52853       80.81275
H         79.89287       54.82563       83.39329
H         79.37744       53.77783       84.72663
N         77.60794       54.99608       78.45828
C         77.91584       55.05282       77.02212
C         76.70694       55.39919       76.16294
O         75.59408       55.37315       76.65644
C         78.55910       53.71567       76.55764
C         77.77962       52.48947       77.00673
C         78.34783       51.61426       77.95214
C         76.49669       52.20194       76.50804
C         77.64886       50.48664       78.39146
C         75.80093       51.06898       76.94396
C         76.37187       50.20929       77.88707
O         75.68651       49.12410       78.30079
H         76.62853       55.04319       78.76504
H         78.62683       55.89258       76.85917
H         79.57551       53.65965       76.99547
H         78.71244       53.69727       75.45817
H         79.33169       51.80759       78.36114
H         76.02904       52.84412       75.78095
H         78.10122       49.83064       79.12478
H         74.81497       50.85951       76.54814
H         76.04635       48.50593       78.95314
N         76.89791       55.73817       74.84404
C         75.87920       56.15518       73.87148
C         75.32461       57.55378       74.12843
O         75.50428       58.40715       73.26974
C         74.76978       55.10213       73.67775
C         75.32657       53.84614       72.98941
C         74.25761       52.81060       72.80289
O         73.93844       52.45146       71.68052
O         73.65666       52.25996       73.87470
H         77.86371       55.70280       74.48578
H         76.38850       56.25041       72.88379
H         73.98721       55.52218       73.00686
H         74.28374       54.85517       74.64410
H         76.15537       53.40514       73.57760
H         75.73233       54.13868       71.99436
N         74.62926       57.87264       75.25127
C         74.04941       59.18759       75.49677
C         75.10479       60.27414       75.43221
O         74.90044       61.24356       74.71418
C         73.30732       59.22508       76.85290
C         72.21665       58.14436       77.02482
C         71.17753       58.13620       75.93730
O         71.47552       57.80748       74.80036
O         69.89693       58.42868       76.22497
H         74.48474       57.15445       75.95494
H         73.30083       59.40850       74.70676
H         72.82828       60.22381       76.95872
H         74.03427       59.10525       77.68678
H         71.72648       58.32942       77.99658
H         72.65866       57.13135       77.08611
N         76.28129       60.15230       76.10819
C         77.34350       61.13701       76.03114
H         78.23840       60.67626       75.56156
H         77.05811       62.02536       75.42792
H         77.60647       61.47957       77.05238
H         76.45523       59.30491       76.66927
Ca        66.84826       58.05302       75.78367
O         68.89518       58.56647       73.21583
H         68.44885       58.88168       72.39070
H         69.73068       59.09545       73.26075
O         64.61032       56.24405       75.36918
H         64.74942       55.28097       75.54995
H         64.72041       56.33224       74.38884
O         68.21056       55.70196       74.41021
H         67.29345       55.37484       74.59051
H         68.51025       55.17813       73.62574

Ca 1.0



