%chk=apoCaM-CA-Ng.loop4.water4.frame966.chk
%nprocshared=20
%mem=10GB
%nosave
#b3lyp/svp scf=(tight,noincore,xqc) Test 
#IOP(5/87=12) Density=Current Pop=(MK,readradii) iop(6/33=2) iop(6/42=6)

apoCaM-CA-Ng.loop4.water4.frame966 

   -3  1 
C         79.79461        1.69891       48.87123
C         80.21725        1.42364       50.28254
O         80.20811        2.33889       51.09284
H         79.51301        2.76673       48.74567
H         80.63048        1.46605       48.17929
H         78.91776        1.06780       48.61580
N         80.59444        0.16151       50.64901
C         81.03933       -0.22283       51.99190
C         79.94446       -0.11444       53.05043
O         80.22811       -0.36646       54.21360
C         82.28361        0.59022       52.40004
C         83.35591        0.48372       51.35740
O         83.84610       -0.59849       51.07831
O         83.79308        1.59486       50.74211
H         80.59221       -0.57398       49.92561
H         81.34034       -1.29405       51.96262
H         82.68418        0.21814       53.36764
H         82.02292        1.65953       52.54371
N         78.67032        0.24119       52.72590
C         77.59345        0.38656       53.69831
C         77.25625       -1.00036       54.23992
O         76.85136       -1.82365       53.43004
C         76.34776        1.03083       52.99071
C         76.70521        2.42463       52.38727
C         75.15499        1.16510       53.95490
C         75.62723        2.98252       51.45557
H         78.44197        0.40055       51.73881
H         77.91029        1.08687       54.49246
H         76.04923        0.35429       52.15796
H         77.61330        2.36347       51.75937
H         76.92202        3.15041       53.20064
H         74.25488        1.53943       53.42851
H         74.87949        0.18211       54.38855
H         75.40140        1.87218       54.77401
H         75.44500        2.27205       50.61998
H         74.67696        3.17829       51.98778
H         75.97882        3.94290       51.02177
N         77.35177       -1.38744       55.54948
C         77.79478       -0.59048       56.69240
C         78.53229       -1.48922       57.68437
O         78.02192       -2.55136       58.01538
C         76.56487        0.03949       57.35945
C         76.92446        0.84077       58.57500
O         76.37623        0.52400       59.76233
O         77.70270        1.77815       58.49406
H         77.00030       -2.33540       55.76104
H         78.46842        0.23297       56.38106
H         75.84138       -0.75304       57.64655
H         76.07322        0.71808       56.63746
N         79.72288       -1.10594       58.22872
C         80.50824       -1.95633       59.11349
C         80.67153       -1.41587       60.51933
O         81.45938       -2.00152       61.24922
H         80.10753       -0.17799       57.99438
H         81.51739       -2.05378       58.65893
H         80.08450       -2.97978       59.19917
N         79.96191       -0.34958       60.99946
C         80.18527        0.16947       62.35531
C         79.14793        1.16163       62.89745
O         79.22066        1.42472       64.09119
C         81.60564        0.78731       62.45704
C         81.92117        1.70812       61.29820
O         81.16666        2.78813       61.03510
O         82.86221        1.45361       60.56393
H         79.25633        0.06783       60.38681
H         80.10303       -0.68633       63.06393
H         82.35906       -0.02688       62.44610
H         81.73263        1.31990       63.42506
N         78.16477        1.74988       62.15494
C         77.18275        2.66114       62.73152
C         77.76864        3.97273       63.22526
O         77.00632        4.78620       63.72704
H         78.07763        1.55932       61.15642
H         76.65176        2.14660       63.56202
H         76.42941        2.91693       61.95427
N         79.09562        4.27067       63.08583
C         79.73061        5.51463       63.49369
C         79.27181        6.71076       62.66476
O         79.73396        7.80780       62.94025
C         79.64170        5.71302       65.02572
C         80.30465        4.51808       65.74737
C         80.40046        4.65995       67.24408
N         80.98640        3.67646       67.96724
O         79.96639        5.65229       67.81026
H         79.72057        3.58729       62.66158
H         80.81873        5.43367       63.26846
H         78.59120        5.83263       65.36431
H         80.19905        6.63736       65.29320
H         81.34034        4.39531       65.36165
H         79.73425        3.59168       65.52770
H         81.36086        2.83542       67.50212
H         81.07234        3.75380       68.99125
N         78.45063        6.56491       61.57710
C         78.09414        7.66236       60.67934
C         78.61765        7.42921       59.25945
O         78.43161        8.31689       58.43534
C         76.55151        7.87701       60.65751
C         75.78050        6.66142       60.10629
C         76.02371        8.24041       62.05165
H         78.08902        5.63648       61.33373
H         78.56140        8.60779       61.03072
H         76.33663        8.74027       59.98843
H         74.69546        6.89325       60.05283
H         76.12044        6.41066       59.07947
H         75.90656        5.76871       60.75326
H         74.93432        8.45443       62.00330
H         76.18759        7.40838       62.76887
H         76.53749        9.14885       62.43091
N         79.24340        6.27328       58.88062
C         79.66549        5.99080       57.51019
C         81.16206        5.68166       57.45791
O         81.79937        5.59310       58.50138
C         78.79851        4.80571       57.01060
C         79.04854        4.37704       55.58760
N         79.49812        3.12930       55.31453
O         78.84733        5.16276       54.67293
H         79.38935        5.51936       59.56857
H         79.48150        6.87074       56.85569
H         77.72599        5.09145       57.08669
H         78.96666        3.94512       57.69147
H         79.67301        2.45234       56.07183
H         79.67966        2.83785       54.34282
N         81.78350        5.48461       56.25989
C         83.17537        5.08704       56.10863
C         83.80469        5.80110       54.92206
O         83.22692        5.76619       53.84170
C         83.24182        3.56622       55.86251
C         84.67858        3.13532       55.67502
C         85.60973        3.28942       56.71748
C         85.10789        2.62029       54.44154
C         86.95001        2.95053       56.52183
C         86.44953        2.28143       54.24885
C         87.37568        2.45037       55.28339
O         88.66945        2.13493       55.07544
H         81.22739        5.55409       55.39813
H         83.74796        5.30059       57.03739
H         82.63836        3.31970       54.96009
H         82.79888        3.01818       56.72295
H         85.30269        3.68463       57.67783
H         84.41024        2.50053       53.62261
H         87.65695        3.08595       57.33076
H         86.77139        1.89761       53.29048
H         89.34286        2.25241       55.76067
N         85.03281        6.38615       55.02751
C         85.70694        7.02575       53.90382
C         86.98738        6.25694       53.56216
O         87.91283        6.30866       54.36076
C         86.01077        8.48864       54.29053
C         86.71177        9.29411       53.18913
C         87.01737       10.68427       53.66738
O         88.29340       11.11063       53.73034
O         86.11366       11.43422       54.00109
H         85.52571        6.34952       55.93367
H         85.03025        7.04565       53.03351
H         86.65547        8.49053       55.19800
H         85.05207        8.99027       54.54907
H         86.06187        9.35909       52.29261
H         87.66584        8.79699       52.90966
N         87.14494        5.48657       52.43717
C         86.07755        5.17020       51.48975
C         85.60189        6.36880       50.68915
O         86.24208        7.40924       50.71408
C         86.49560        4.01655       50.54227
C         87.53024        4.39711       49.46634
C         88.02628        3.23201       48.62878
O         87.19499        2.32446       48.06610
O         89.22571        3.11880       48.43240
H         88.04908        5.00075       52.32464
H         85.22821        4.78792       52.09846
H         85.57918        3.70830       50.01227
H         86.86856        3.16734       51.15429
H         88.41030        4.89234       49.93058
H         87.05298        5.12794       48.77983
N         84.45548        6.27716       49.95789
C         83.90448        7.37198       49.18652
H         82.89222        7.61554       49.57302
H         84.52914        8.28779       49.24311
H         83.81818        7.06637       48.12324
H         83.92675        5.39247       49.96339
Ca        85.46061        1.49165       49.24034
O         83.41791        3.38027       47.90421
H         83.68871        3.68184       47.00089
H         82.72741        4.03059       48.18761
O         84.31579       -1.92547       48.18711
H         84.68266       -2.47177       47.44721
H         84.62661       -2.38222       49.00882
O         87.17215       -0.77392       47.51121
H         87.04448       -0.94412       46.54413
H         88.05763       -0.33513       47.57172
O         87.15409        0.12292       51.10031
H         87.58639       -0.58982       51.63280
H         87.86365        0.44750       50.49026

Ca 1.0



