%chk=apoCaM-CA-Ng.loop4.water7.frame516.chk
%nprocshared=20
%mem=10GB
%nosave
#b3lyp/svp scf=(tight,noincore,xqc) Test 
#IOP(5/87=12) Density=Current Pop=(MK,readradii) iop(6/33=2) iop(6/42=6)

apoCaM-CA-Ng.loop4.water7.frame516 

   -3  1 
C         91.93904       60.11960       53.04477
C         92.02998       58.63543       52.86617
O         91.31907       57.91273       53.54893
H         91.18611       60.37622       53.82093
H         92.92635       60.51917       53.35546
H         91.63467       60.58920       52.08579
N         92.88667       58.10983       51.93830
C         93.06853       56.67791       51.67277
C         91.83642       56.01802       51.04562
O         91.88444       54.82620       50.77392
C         93.50778       55.94717       52.96531
C         94.64629       56.67980       53.61568
O         95.71136       56.80941       53.03466
O         94.45124       57.27625       54.80864
H         93.47452       58.76418       51.39929
H         93.89291       56.57556       50.93186
H         93.79740       54.89600       52.75133
H         92.66645       55.91498       53.68455
N         90.69658       56.72613       50.79735
C         89.45264       56.14428       50.29549
C         89.60223       55.67166       48.84597
O         90.53560       56.10876       48.18709
C         88.28413       57.18893       50.45799
C         88.49906       58.46331       49.58604
C         88.08955       57.51723       51.95480
C         87.39712       59.51228       49.74236
H         90.69155       57.72027       51.02435
H         89.22504       55.26717       50.93813
H         87.33021       56.75002       50.12845
H         88.52616       58.15847       48.51778
H         89.45748       58.96937       49.81508
H         87.18433       58.13610       52.11429
H         87.94439       56.58185       52.53560
H         88.95616       58.06022       52.37879
H         86.40333       59.07500       49.51393
H         87.39473       59.93124       50.77022
H         87.58989       60.35515       49.04539
N         88.72695       54.80932       48.23917
C         87.64645       54.10125       48.92393
C         88.17728       53.02126       49.85545
O         87.43273       52.57759       50.71542
C         86.67220       53.45576       47.91826
C         86.05285       54.48615       47.01341
O         86.20695       54.41462       45.80465
O         85.32038       55.49069       47.53234
H         88.86524       54.62159       47.23296
H         87.05312       54.81363       49.50519
H         85.85073       52.94500       48.46752
H         87.21140       52.69473       47.31122
N         89.42970       52.50327       49.70141
C         89.97384       51.42388       50.50960
C         89.15309       50.15877       50.39216
O         88.80969       49.77513       49.28224
H         90.03563       52.86187       48.94946
H         90.07378       51.74106       51.56852
H         90.99259       51.19544       50.12855
N         88.85774       49.41762       51.50083
C         88.11024       48.16224       51.42608
C         86.62332       48.36888       51.13449
O         85.94995       47.38706       50.85561
C         88.33242       47.29221       52.69013
C         87.91365       47.90040       54.00503
O         87.44671       49.02431       54.06986
O         88.08326       47.19315       55.13803
H         89.25073       49.71952       52.40496
H         88.53862       47.57087       50.58510
H         89.41728       47.06087       52.76574
H         87.79145       46.32946       52.56268
N         86.04151       49.60272       51.18715
C         84.64183       49.86678       50.87509
C         83.86734       50.40867       52.06327
O         82.72529       50.80451       51.88216
H         86.60863       50.41132       51.46795
H         84.11795       48.95861       50.50812
H         84.62168       50.62386       50.06229
N         84.41220       50.43515       53.31195
C         83.76422       50.93591       54.51542
C         83.53209       52.43685       54.44965
O         82.54074       52.92233       54.97499
C         82.49653       50.13705       54.91576
C         82.76002       48.64873       55.20630
C         83.14100       47.85970       53.98053
N         84.33067       47.21875       53.91138
O         82.36052       47.78958       53.04264
H         85.36351       50.07612       53.44504
H         84.49785       50.80832       55.34403
H         81.69966       50.24217       54.14950
H         82.10750       50.57377       55.86197
H         81.82976       48.19908       55.61539
H         83.54537       48.56906       55.98925
H         85.00215       47.26281       54.69116
H         84.58228       46.67514       53.07319
N         84.48060       53.24068       53.89175
C         84.48455       54.69504       54.01756
C         85.75685       55.17238       54.70619
O         85.82794       56.36302       54.99055
C         84.26063       55.40778       52.65685
C         85.18940       54.89371       51.55232
C         82.79647       55.28499       52.21723
H         85.26654       52.79792       53.39570
H         83.66669       55.02441       54.69622
H         84.45021       56.49621       52.79683
H         84.97360       53.82958       51.31646
H         85.03124       55.48538       50.62579
H         86.25017       54.98767       51.85958
H         82.63154       55.84846       51.27393
H         82.50917       54.22409       52.06566
H         82.13392       55.73017       52.99197
N         86.78194       54.33416       55.05667
C         87.90871       54.80220       55.85496
C         87.42638       55.18902       57.23900
O         86.27395       54.95967       57.57534
C         89.00789       53.72256       55.97045
C         89.64412       53.43987       54.63595
N         90.31465       54.41425       53.97810
O         89.57025       52.32072       54.15292
H         86.76613       53.33931       54.79529
H         88.33713       55.70655       55.37019
H         88.56987       52.79315       56.39891
H         89.81929       54.05881       56.65079
H         90.40174       55.35937       54.37967
H         90.75951       54.22091       53.07079
N         88.27745       55.82540       58.08510
C         87.88058       56.30098       59.40400
C         87.96456       57.81078       59.41474
O         88.43199       58.38730       58.44317
C         88.81205       55.66782       60.45193
C         88.70306       54.16207       60.39756
C         89.75659       53.39052       59.87791
C         87.53522       53.51896       60.83984
C         89.63752       52.00031       59.79144
C         87.42374       52.12724       60.76504
C         88.46982       51.36371       60.23628
O         88.34060       50.02390       60.15740
H         89.23856       56.02236       57.76858
H         86.82562       56.02941       59.62460
H         88.58508       56.02181       61.48069
H         89.85175       55.98425       60.21102
H         90.66160       53.86492       59.51930
H         86.71332       54.09552       61.24562
H         90.45119       51.42015       59.37460
H         86.52036       51.64242       61.11318
H         89.03592       49.46053       59.78863
N         87.48594       58.52609       60.47348
C         87.55031       59.97945       60.50731
C         88.32043       60.41314       61.74578
O         87.80885       60.20767       62.83648
C         86.13457       60.58703       60.46001
C         86.18719       62.12203       60.35653
C         84.81586       62.70289       60.17235
O         84.55524       63.35201       59.17143
O         83.86901       62.51981       61.11175
H         87.05534       58.02779       61.26604
H         88.01972       60.35643       59.58749
H         85.54130       60.27654       61.34787
H         85.62672       60.19566       59.54956
H         86.81819       62.40910       59.48552
H         86.64226       62.55269       61.27357
N         89.53321       61.04380       61.70176
C         90.33177       61.26714       60.50240
C         90.19134       62.70407       60.06669
O         90.47990       63.60245       60.84626
C         91.80842       60.90639       60.74297
C         91.98110       59.43533       61.15263
C         93.43329       59.06561       61.22263
O         93.97794       58.66047       62.38495
O         94.12352       59.11108       60.21798
H         89.92497       61.38306       62.59522
H         90.02350       60.60739       59.67281
H         92.24825       61.56132       61.52764
H         92.35643       61.08608       59.79082
H         91.48965       58.76826       60.41156
H         91.50691       59.27185       62.14456
N         89.74239       62.99404       58.81506
C         89.57159       64.35209       58.35240
H         88.81242       64.86915       58.97651
H         90.53752       64.89708       58.40827
H         89.22407       64.34927       57.29732
H         89.51719       62.22745       58.16231
Ca        95.92463       58.77616       55.63562
O         98.39195       59.55269       57.22860
H         99.21834       59.07573       56.96480
H         98.67853       60.48937       57.37280
O         97.02236       62.18276       55.34232
H         97.11540       62.71619       54.51368
H         96.88132       62.85684       56.05350
O         95.80488       61.14845       58.03474
H         96.05419       62.07679       58.27013
H         95.56641       60.73521       58.90036
O         93.09564       59.62729       56.61373
H         92.15638       59.32948       56.51812
H         93.14187       60.01866       57.52187
O         97.31111       59.71839       52.99096
H         97.45566       58.79634       53.32037
H         97.75139       59.73345       52.10466
O         97.79611       56.48953       55.45119
H         98.38880       56.12676       56.15570
H         96.93347       56.02338       55.58948
O         95.94615       57.54737       58.32946
H         95.05126       57.12609       58.37488
H         96.57651       56.78729       58.26066

Ca 1.0



