%chk=apoCaM-CA-Ng.loop2.water5.frame223.chk
%nprocshared=20
%mem=10GB
%nosave
#b3lyp/svp scf=(tight,noincore,xqc) Test 
#IOP(5/87=12) Density=Current Pop=(MK,readradii) iop(6/33=2) iop(6/42=6)

apoCaM-CA-Ng.loop2.water5.frame223 

   -2  1 
C         13.18863       24.49405       78.96735
C         13.06596       23.07097       78.50369
O         13.81845       22.65312       77.63603
H         14.00153       25.02201       78.42361
H         12.23265       25.02911       78.79295
H         13.41543       24.51495       80.05416
N         12.14113       22.25063       79.07136
C         11.99059       20.84988       78.69691
C         11.44675       20.71626       77.28339
O         10.36640       21.22048       77.00867
C         11.04813       20.13445       79.68366
C         10.93802       18.66495       79.37789
O         11.93139       17.95512       79.39922
O          9.74154       18.12622       79.07687
H         11.55428       22.63304       79.82957
H         12.98525       20.35679       78.78585
H         10.03972       20.60205       79.64795
H         11.44653       20.24629       80.71548
N         12.13876       20.00642       76.34930
C         11.66114       19.75595       74.99562
C         12.60566       20.39702       74.00216
O         13.81441       20.30133       74.16638
C         11.53858       18.25094       74.75816
H         13.04879       19.59900       76.61450
H         10.64114       20.17422       74.84272
H         12.51695       17.74183       74.87803
H         10.81408       17.81894       75.48315
H         11.15145       18.06030       73.73318
N         12.10133       21.10192       72.95078
C         12.91441       21.90777       72.03957
C         13.96024       21.13284       71.24120
O         14.70683       21.77647       70.51873
C         12.00275       22.68739       71.06467
C         10.98310       23.51827       71.79665
O          9.79107       23.33048       71.61245
O         11.37836       24.45923       72.67229
H         11.07627       21.11803       72.83861
H         13.46252       22.64849       72.65657
H         11.48260       21.97009       70.39136
H         12.61753       23.37014       70.43966
N         14.08963       19.77654       71.29878
C         15.08414       19.02870       70.54580
C         16.53361       19.20804       70.98760
O         17.35889       18.50105       70.43275
H         13.42391       19.22282       71.85425
H         14.98938       19.26134       69.46197
H         14.85927       17.94688       70.67339
N         16.93741       20.10101       71.94916
C         18.33431       20.19960       72.39313
C         18.43319       20.03552       73.90653
O         17.42397       19.99710       74.58896
C         18.97241       21.54638       71.97908
C         19.11979       21.70587       70.48289
N         18.04204       21.84496       69.67934
O         20.23869       21.73297       69.99235
H         16.25515       20.73167       72.38549
H         18.94197       19.38564       71.94234
H         19.99800       21.58622       72.40790
H         18.40269       22.40318       72.39869
H         17.09463       21.86266       70.06996
H         18.15788       21.96068       68.66173
N         19.66805       19.90426       74.48195
C         19.89052       19.74118       75.91264
C         20.94099       20.70877       76.42511
O         21.43091       21.53902       75.67685
H         20.49553       19.86775       73.87158
H         20.28641       18.71685       76.07590
H         18.95314       19.84875       76.49845
N         21.37443       20.59751       77.71532
C         22.47360       21.39759       78.26203
C         22.18248       22.89204       78.23288
O         23.09720       23.65424       77.94727
C         22.92220       20.91400       79.67030
C         21.84967       21.00944       80.76497
O         23.43395       19.60435       79.59985
H         20.93854       19.87318       78.30121
H         23.36385       21.23265       77.61342
H         23.76667       21.56473       79.98871
H         22.67845       18.97877       79.45220
H         22.28374       20.67925       81.73331
H         21.50160       22.05059       80.88149
H         20.97700       20.36395       80.53918
N         20.92987       23.37823       78.46127
C         20.56611       24.79088       78.31804
C         19.56109       24.94418       77.18611
O         19.21554       23.94005       76.57302
C         20.09584       25.43952       79.65848
C         18.70895       25.01679       80.22036
C         21.20068       25.34674       80.72330
C         18.56060       23.59628       80.76969
H         20.19377       22.69657       78.67053
H         21.45910       25.37731       78.00558
H         19.98582       26.52531       79.44675
H         17.92603       25.18945       79.45116
H         18.48681       25.70149       81.06880
H         20.90947       25.91043       81.63463
H         21.40366       24.29802       81.00608
H         22.14462       25.78679       80.33540
H         19.31559       23.38806       81.55504
H         17.55523       23.49724       81.22980
H         18.60452       22.83139       79.98026
N         19.05911       26.16509       76.82907
C         18.16433       26.33345       75.68935
C         18.75277       27.35766       74.72573
O         18.06815       28.27877       74.30557
C         16.74795       26.67442       76.20134
C         15.68564       26.65960       75.13590
O         15.95337       26.39823       73.97355
O         14.40656       26.88825       75.48181
H         19.31976       27.00521       77.36775
H         18.08594       25.37523       75.13163
H         16.74962       27.65411       76.71646
H         16.45691       25.90419       76.94815
N         20.05587       27.24514       74.34558
C         20.72140       28.13989       73.39879
C         20.58583       29.60018       73.84272
O         20.86636       29.88684       74.99827
C         22.19527       27.68871       73.24038
C         22.91866       28.33300       72.07831
C         23.24293       27.55731       70.94800
C         23.28716       29.68980       72.10063
C         23.90723       28.12877       69.86072
C         23.95644       30.25671       71.00971
C         24.26350       29.47775       69.89059
H         20.60293       26.47198       74.75584
H         20.23211       27.99004       72.41449
H         22.16215       26.59338       73.04527
H         22.76868       27.83017       74.18214
H         22.97429       26.50892       70.90085
H         23.06421       30.30868       72.95883
H         24.14471       27.52364       68.99476
H         24.23844       31.30103       71.03120
H         24.77954       29.91735       69.04685
N         20.14659       30.58151       72.98882
C         19.90540       31.97442       73.36014
C         18.82199       32.14218       74.41038
O         18.99263       32.91300       75.34321
C         19.39567       32.61190       72.05431
C         20.11957       31.80650       71.00880
C         19.95940       30.39485       71.56183
H         20.86512       32.44744       73.66719
H         18.31394       32.38782       71.90108
H         19.52550       33.71393       72.00111
H         19.75257       31.94055       69.96936
H         21.19708       32.08907       71.05213
H         18.94173       29.98401       71.38187
H         20.73158       29.76009       71.08315
N         17.65067       31.46087       74.26827
C         16.46001       31.63972       75.09440
C         16.76905       31.49639       76.57111
O         16.45601       32.40943       77.32384
C         15.35966       30.64016       74.65638
C         14.86567       30.92733       73.22209
C         13.88103       29.89786       72.76049
O         12.74173       30.21990       72.46474
O         14.27170       28.61833       72.61833
H         17.60693       30.77683       73.50014
H         16.05978       32.66721       74.94005
H         14.48470       30.72180       75.33893
H         15.75755       29.60487       74.73018
H         15.69649       30.91730       72.48920
H         14.40026       31.93665       73.19937
N         17.39851       30.39828       77.06198
C         17.69514       30.25605       78.47117
H         18.33313       31.09982       78.81240
H         16.75110       30.25001       79.05730
H         18.23563       29.30358       78.65295
H         17.69431       29.65580       76.41708
Ca        12.80076       26.61517       73.92459
O         12.11347       26.97149       70.82806
H         11.54493       26.94092       70.01800
H         11.72125       27.69410       71.37901
O         14.27973       23.66133       74.83425
H         15.24183       23.45297       74.73280
H         14.23004       24.22098       75.64882
O         10.48291       28.47724       73.92492
H         11.17446       29.00162       74.40280
H          9.95899       28.04579       74.64627
O         11.56380       25.36414       76.24428
H         10.64577       25.00129       76.17606
H         11.44121       26.30369       76.53310
O         14.64342       24.95098       71.71322
H         14.54694       25.42840       70.85159
H         15.57737       24.62204       71.71290

Ca 1.0



