%chk=apoCaM-CA-Ng.loop3.water6.frame371.chk
%nprocshared=20
%mem=10GB
%nosave
#b3lyp/svp scf=(tight,noincore,xqc) Test 
#IOP(5/87=12) Density=Current Pop=(MK,readradii) iop(6/33=2) iop(6/42=6)

apoCaM-CA-Ng.loop3.water6.frame371 

   0  1 
C         37.88994      112.22957       22.49092
C         38.76066      113.03370       21.56881
O         39.54198      113.83807       22.04711
H         36.82180      112.43636       22.26647
H         38.08874      111.14686       22.34902
H         38.08527      112.49278       23.55294
N         38.65878      112.86245       20.21804
C         39.42145      113.55747       19.17135
C         39.07742      115.03775       18.99800
O         39.45072      115.59207       17.97264
C         40.93985      113.39262       19.37661
C         41.75322      113.81526       18.18718
O         41.63740      113.22999       17.12304
O         42.62582      114.83508       18.29534
H         37.99543      112.14206       19.89171
H         39.13313      113.05450       18.22063
H         41.18393      112.33237       19.60278
H         41.23390      114.03640       20.22441
N         38.42542      115.75710       19.95279
C         38.10945      117.17483       19.83374
C         38.91765      118.02807       20.80692
O         38.74423      119.23862       20.78683
C         36.59052      117.36534       20.08271
C         36.18757      117.10398       21.55557
C         34.67200      117.12632       21.76193
C         34.27692      117.00132       23.24796
N         34.78626      115.77951       23.87869
H         38.15597      115.29762       20.82033
H         38.34784      117.53120       18.80796
H         36.04058      116.67638       19.40464
H         36.29656      118.40621       19.82526
H         36.65699      117.87725       22.20199
H         36.54011      116.11074       21.88275
H         34.21805      116.29212       21.18302
H         34.26015      118.08463       21.37915
H         33.16651      117.00478       23.30835
H         34.65269      117.88522       23.80947
H         35.82750      115.81317       23.96443
H         34.39537      115.71005       24.84598
H         34.49660      114.93566       23.33378
N         39.76555      117.47736       21.72984
C         40.37707      118.27820       22.78598
C         41.42488      119.24336       22.24235
O         41.85365      119.09791       21.10547
C         40.99027      117.34329       23.85264
C         41.34693      118.05553       25.11956
O         42.61579      118.07239       25.55962
O         40.47674      118.60824       25.77278
H         39.89472      116.45704       21.75755
H         39.54867      118.84926       23.26199
H         41.88260      116.84198       23.43001
H         40.25144      116.55919       24.12877
N         41.86698      120.27817       23.01392
C         42.87374      121.23589       22.58257
C         44.29331      120.69439       22.60712
O         45.19492      121.44614       22.26680
H         41.42548      120.43509       23.93062
H         42.86314      122.09703       23.28516
H         42.61162      121.62183       21.57343
N         44.58130      119.42699       23.02007
C         45.93130      118.87584       23.10005
C         46.08871      117.71769       22.12040
O         47.08147      117.00771       22.19711
C         46.19916      118.40830       24.55172
C         46.16739      119.55698       25.53639
N         47.26551      119.87866       26.26113
O         45.13929      120.19917       25.68871
H         43.81647      118.79887       23.30207
H         46.70957      119.62706       22.84216
H         47.20162      117.92955       24.59648
H         45.44909      117.64560       24.85647
H         48.14547      119.35309       26.15598
H         47.23738      120.66029       26.93303
N         45.15728      117.47761       21.15241
C         45.19093      116.33484       20.25856
C         45.01933      115.06310       21.04961
O         45.76836      114.11753       20.85336
H         44.35582      118.11336       21.04089
H         46.11897      116.32404       19.64553
H         44.32533      116.42071       19.56848
N         44.06486      115.01520       22.01906
C         43.83670      113.88554       22.90343
C         44.30067      114.25927       24.28972
O         43.78011      115.19533       24.87929
C         42.33992      113.56313       22.93389
C         41.94135      112.56822       23.98933
C         42.24289      111.20657       23.84975
C         41.24671      113.01128       25.12772
C         41.84398      110.29769       24.83576
C         40.86631      112.10708       26.11741
C         41.15900      110.74456       25.97298
O         40.78851      109.85974       26.91939
H         43.51116      115.86690       22.19019
H         44.39905      112.99000       22.55830
H         42.02029      113.17968       21.95631
H         41.80597      114.51646       23.13219
H         42.76985      110.85015       22.97341
H         41.01170      114.06137       25.25713
H         42.06842      109.24589       24.71669
H         40.34303      112.46853       26.99354
H         40.31908      110.13404       27.72035
N         45.30415      113.55007       24.86009
C         45.81890      113.79277       26.19507
C         47.13229      114.52773       26.05236
O         47.30801      115.54479       26.70819
C         45.95030      112.44265       26.96142
C         44.57037      111.73169       27.02770
C         46.51613      112.67471       28.37789
C         44.62970      110.31187       27.59504
H         45.75129      112.80463       24.30477
H         45.13036      114.44583       26.77952
H         46.65707      111.79151       26.39980
H         44.16215      111.63144       26.00181
H         43.85428      112.34074       27.62233
H         47.50714      113.16972       28.33285
H         45.82868      113.31437       28.97220
H         46.66791      111.71721       28.91459
H         43.61555      109.86066       27.56233
H         45.31019      109.68449       26.98073
H         44.96672      110.30117       28.64991
N         48.07667      114.11876       25.15681
C         49.33786      114.82496       24.99253
C         50.21952      114.60671       26.20560
O         51.04865      115.45784       26.49230
C         50.06941      114.36166       23.72383
O         49.25670      114.53672       22.59325
H         47.88691      113.30306       24.55685
H         49.11993      115.91087       24.86587
H         50.32602      113.28441       23.80557
H         51.02324      114.92202       23.59284
H         49.24076      115.51003       22.40030
N         50.08256      113.47414       26.96518
C         50.85083      113.14477       28.16166
C         50.57210      114.05856       29.35413
O         51.12472      113.80003       30.41425
C         52.34867      113.07002       27.83723
H         49.39776      112.76269       26.66938
H         50.53687      112.12520       28.48076
H         52.51477      112.36410       26.99509
H         52.75824      114.06127       27.55726
H         52.91402      112.69960       28.71760
N         49.73202      115.13053       29.27757
C         49.45198      116.01255       30.40240
C         48.62729      115.30650       31.45882
O         47.57082      114.78522       31.12835
C         48.67232      117.24113       29.91842
H         49.27852      115.35588       28.38607
H         50.40820      116.39345       30.82415
H         48.47573      117.93120       30.76675
H         49.26378      117.78751       29.15291
H         47.70600      116.93771       29.46871
N         49.02128      115.31176       32.76758
C         48.21162      114.78990       33.86905
C         48.03255      113.27791       33.82398
O         47.25188      112.76236       34.61364
C         46.84808      115.53180       33.95723
C         46.99706      117.05962       34.07840
C         47.74965      117.45973       35.31659
O         48.78901      118.09342       35.22603
O         47.27785      117.12476       36.53284
H         49.91064      115.77174       33.01351
H         48.74127      114.99400       34.82523
H         46.28316      115.16432       34.84216
H         46.22438      115.31339       33.06665
H         45.98655      117.51911       34.12152
H         47.51043      117.45721       33.17617
N         48.76620      112.48627       32.99147
C         48.62645      111.04599       32.98893
H         47.59945      110.76584       32.67390
H         49.35558      110.59534       32.28279
H         48.82583      110.64190       34.00535
H         49.47189      112.89768       32.36613
Ca        43.01272      119.10317       27.51985
O         45.19493      117.30806       28.16100
H         45.36334      117.16403       29.12553
H         46.05677      117.62985       27.79722
O         42.60995      117.88037       30.25200
H         43.12676      117.57895       31.04047
H         41.73636      117.42165       30.33443
O         42.04947      121.60276       26.25472
H         42.62664      122.09606       26.88996
H         41.16938      122.05207       26.31302
O         42.43533      115.70971       27.90309
H         42.97475      116.07799       27.16120
H         43.09197      115.22292       28.46111
O         44.75511      120.42524       29.38909
H         44.66847      121.38013       29.14193
H         45.20225      120.43115       30.27173
O         40.23155      119.44617       28.83581
H         39.43465      119.11057       28.35371
H         40.01453      120.38753       29.05203

Ca 1.0



