%chk=apoCaM-CA-Ng.loop2.water3.frame312.chk
%nprocshared=20
%mem=10GB
%nosave
#b3lyp/svp scf=(tight,noincore,xqc) Test 
#IOP(5/87=12) Density=Current Pop=(MK,readradii) iop(6/33=2) iop(6/42=6)

apoCaM-CA-Ng.loop2.water3.frame312 

   -2  1 
C         54.18919       88.68896       31.73046
C         53.96353       90.15092       31.98765
O         52.83943       90.60480       31.83671
H         55.24982       88.40603       31.89570
H         53.55052       88.08643       32.40968
H         53.92186       88.45205       30.67883
N         54.98869       90.95551       32.38898
C         54.82558       92.38818       32.62255
C         54.47878       93.07839       31.31896
O         55.24104       92.97606       30.36682
C         56.11092       93.00835       33.20593
C         56.47725       92.45499       34.56048
O         55.72239       91.51321       35.16189
O         57.47047       92.87605       35.13039
H         55.91691       90.52996       32.53645
H         54.01304       92.54814       33.36720
H         55.95775       94.10404       33.32175
H         56.95779       92.84257       32.50483
N         53.32104       93.78611       31.20265
C         52.88311       94.39141       29.95062
C         52.70153       93.31531       28.90215
O         53.21044       93.46433       27.80121
C         51.56496       95.14704       30.15412
H         52.71047       93.86879       32.03063
H         53.63362       95.13702       29.60327
H         51.24495       95.61682       29.19876
H         50.76101       94.46745       30.50779
H         51.70849       95.95449       30.90406
N         52.01365       92.17777       29.21070
C         51.78582       91.06054       28.30493
C         50.85362       91.48993       27.18948
O         51.15956       91.31688       26.01769
C         53.11933       90.43605       27.81868
C         52.88898       89.24066       26.89289
O         54.09839       88.81460       26.33338
O         52.33567       88.15771       27.58671
H         51.62314       92.08896       30.16073
H         51.24076       90.27498       28.87671
H         53.73780       90.12431       28.68913
H         53.69448       91.18506       27.24024
N         49.65691       92.04744       27.51694
C         48.63497       92.39206       26.54618
C         47.32563       91.67922       26.82518
O         46.38189       91.92087       26.08508
H         49.45441       92.23101       28.51212
H         48.95522       92.14173       25.51222
H         48.45726       93.48685       26.59681
N         47.16703       90.82053       27.88139
C         45.88410       90.18751       28.19808
C         45.87094       89.71852       29.66735
O         46.89939       89.79529       30.32743
C         45.61708       89.07047       27.14509
C         44.16226       88.75111       26.87065
N         43.62360       89.02895       25.65615
O         43.46890       88.21994       27.72064
H         47.96732       90.65247       28.50151
H         45.11128       90.98420       28.11505
H         46.19384       88.15391       27.39460
H         46.02395       89.42212       26.17525
H         44.18466       89.46517       24.90876
H         42.63656       88.81107       25.45554
N         44.73583       89.27651       30.27532
C         44.67367       88.92808       31.69022
C         44.37343       87.46697       31.89588
O         44.32185       86.71357       30.93224
H         43.85865       89.22682       29.74733
H         43.87584       89.54320       32.15917
H         45.62308       89.14791       32.22347
N         44.14307       86.99606       33.15596
C         43.80554       85.59796       33.40643
C         45.01676       84.67247       33.27361
O         44.80877       83.46917       33.21571
C         43.07167       85.40499       34.76360
C         43.94053       85.65497       36.00490
O         41.90574       86.19294       34.80601
H         44.13651       87.67363       33.93283
H         43.06082       85.30485       32.63151
H         42.74379       84.34419       34.82528
H         42.16747       87.13074       34.99990
H         44.34348       86.68818       36.02684
H         43.33696       85.48946       36.92230
H         44.77517       84.93502       36.02601
N         46.30104       85.14980       33.23661
C         47.48260       84.30221       33.06515
C         48.21953       84.74067       31.81798
O         48.60222       85.89868       31.71612
C         48.42744       84.36774       34.30186
C         47.74861       83.85896       35.59788
C         49.74132       83.59257       34.05549
C         47.28271       82.39538       35.56815
H         46.46341       86.16314       33.33167
H         47.18857       83.24160       32.93115
H         48.70827       85.43103       34.47413
H         46.88178       84.50327       35.81805
H         48.46120       83.97552       36.44282
H         49.54649       82.52690       33.81630
H         50.30955       84.03133       33.20878
H         50.39656       83.65159       34.95008
H         48.13240       81.70378       35.39725
H         46.82568       82.13567       36.54529
H         46.51426       82.22470       34.78950
N         48.45856       83.83827       30.82757
C         49.15292       84.16549       29.58745
C         48.93290       83.02493       28.59516
O         49.87151       82.52554       27.99350
C         50.65031       84.42364       29.90502
C         51.50002       84.88005       28.75538
O         51.02781       85.08870       27.64900
O         52.81587       85.06680       28.96526
H         48.10174       82.87887       30.95868
H         48.67181       85.07012       29.15357
H         51.08532       83.48562       30.31271
H         50.74579       85.20250       30.68842
N         47.67162       82.52486       28.44987
C         47.29654       81.39066       27.61127
C         48.25174       80.20876       27.78351
O         48.50849       79.81545       28.91315
C         45.83434       80.99289       27.95197
C         45.29889       79.79756       27.19286
C         44.30308       79.96641       26.21578
C         45.75817       78.49648       27.47777
C         43.79370       78.86031       25.52760
C         45.24565       77.39549       26.78997
C         44.26568       77.57666       25.81345
H         46.92670       82.95449       29.02085
H         47.31403       81.73821       26.56113
H         45.20424       81.88355       27.73194
H         45.73077       80.78119       29.03925
H         43.92265       80.95287       25.98261
H         46.50147       78.32192       28.24216
H         43.02985       78.99804       24.77403
H         45.60558       76.40092       27.02053
H         43.86809       76.72121       25.28362
N         48.78228       79.55887       26.69566
C         49.66630       78.39852       26.75578
C         50.94902       78.62821       27.52642
O         51.42800       77.70965       28.17549
C         50.03926       78.16326       25.28297
C         48.78819       78.59573       24.56763
C         48.44223       79.87262       25.31803
H         49.09801       77.52900       27.15674
H         50.83364       78.88051       24.96782
H         50.38808       77.13281       25.05777
H         48.88174       78.71935       23.46786
H         47.99991       77.83694       24.78067
H         49.05565       80.74111       24.98867
H         47.36023       80.05901       25.15127
N         51.59136       79.82488       27.43121
C         52.91257       80.09623       27.98698
C         52.97100       79.79532       29.47124
O         53.78817       78.97514       29.86866
C         53.32750       81.56336       27.72573
C         53.44928       81.89004       26.22537
C         53.84499       83.32262       26.02041
O         53.11840       84.07636       25.39201
O         55.00875       83.78076       26.51896
H         51.11534       80.57011       26.90675
H         53.65223       79.43782       27.47723
H         54.31738       81.74361       28.20068
H         52.58784       82.24577       28.19631
H         52.48739       81.71661       25.70071
H         54.21703       81.23496       25.76207
N         52.14003       80.41078       30.35378
C         52.20563       80.13649       31.77343
H         53.20908       80.41136       32.16472
H         51.43762       80.72898       32.31287
H         52.02351       79.05634       31.96176
H         51.44086       81.08569       30.01203
Ca        53.92523       86.65517       26.96906
O         51.82847       87.09242       24.53157
H         52.41893       86.72371       23.82742
H         51.02046       86.52089       24.50416
O         55.78973       86.23613       24.47908
H         56.44483       85.98708       25.17868
H         55.88683       87.21719       24.38707
O         56.16537       87.26689       28.84960
H         56.57174       86.47599       28.41352
H         56.12379       87.94973       28.13358

Ca 1.0



