%chk=apoCaM-CA-Ng.loop2.water5.frame1347.chk
%nprocshared=20
%mem=10GB
%nosave
#b3lyp/svp scf=(tight,noincore,xqc) Test 
#IOP(5/87=12) Density=Current Pop=(MK,readradii) iop(6/33=2) iop(6/42=6)

apoCaM-CA-Ng.loop2.water5.frame1347 

   -2  1 
C         63.16173       50.88540      110.27495
C         63.04743       51.45434      108.88723
O         63.89635       52.25264      108.51844
H         64.05236       51.29869      110.79419
H         62.25974       51.14977      110.86568
H         63.27139       49.78144      110.22509
N         62.04342       51.11424      108.02834
C         60.97787       50.15721      108.33253
C         59.58604       50.78045      108.29339
O         58.66422       50.11839      108.75104
C         61.06308       48.95692      107.35782
C         60.82724       49.34827      105.92032
O         60.96175       48.46462      104.92228
O         60.51734       50.49101      105.62489
H         62.06741       51.55402      107.09710
H         61.10790       49.76059      109.35861
H         60.31601       48.18151      107.63637
H         62.07517       48.50762      107.44228
N         59.33417       52.00307      107.72651
C         58.00006       52.58797      107.68362
C         57.46191       52.64077      106.25636
O         56.98095       53.68554      105.84272
C         58.05215       53.97682      108.33900
H         60.09530       52.53734      107.28512
H         57.28410       51.96291      108.25808
H         57.04516       54.44352      108.36305
H         58.43142       53.89589      109.37940
H         58.73957       54.64075      107.76786
N         57.46997       51.51922      105.46811
C         56.86488       51.43677      104.12540
C         56.99173       50.02630      103.51488
O         57.64321       49.16336      104.08685
C         57.41397       52.52350      103.16035
C         58.88866       52.40876      102.93115
O         59.64861       53.28684      103.30858
O         59.35526       51.37813      102.20968
H         57.89556       50.67473      105.87485
H         55.77647       51.62828      104.24952
H         57.18698       53.53208      103.55175
H         56.89632       52.47265      102.17918
N         56.32000       49.71375      102.36648
C         56.25177       48.36893      101.80250
C         57.45387       47.98242      100.96024
O         58.54847       47.89645      101.49160
H         55.70647       50.43002      101.95140
H         55.34624       48.31252      101.16371
H         56.10321       47.62420      102.61617
N         57.30515       47.69981       99.62722
C         58.38099       47.19200       98.77159
C         58.85504       48.23212       97.76603
O         58.31213       49.32608       97.69443
C         57.89661       45.92554       98.01422
C         57.64142       44.74999       98.91736
N         58.65862       44.18426       99.60854
O         56.51778       44.27647       98.99400
H         56.37663       47.82887       99.19570
H         59.27363       46.94088       99.38045
H         58.65068       45.58261       97.27621
H         56.97522       46.17921       97.44283
H         59.61761       44.55399       99.53155
H         58.49326       43.36013      100.20464
N         59.91103       47.92178       96.95556
C         60.49994       48.79434       95.95175
C         61.25841       49.96265       96.54910
O         61.23160       50.12902       97.75226
H         60.33222       46.98540       97.03866
H         59.71581       49.15052       95.24882
H         61.23713       48.18673       95.38786
N         61.99578       50.82894       95.79578
C         62.23274       50.69543       94.36374
C         63.72226       50.54788       94.05116
O         64.03660       50.36332       92.88502
C         61.63142       51.90080       93.61042
C         60.11170       51.96843       93.80264
O         62.22670       53.09096       94.06019
H         62.43698       51.62709       96.28162
H         61.74617       49.78465       93.96258
H         61.83690       51.76162       92.52285
H         62.06436       53.77554       93.35978
H         59.69463       52.81674       93.22113
H         59.63939       51.03047       93.43934
H         59.85206       52.11126       94.87299
N         64.69264       50.61339       95.01951
C         66.11970       50.47892       94.74049
C         66.67663       49.32158       95.56998
O         66.58314       49.39668       96.78596
C         66.86798       51.80030       95.09995
C         66.31571       53.03157       94.33222
C         68.39306       51.66917       94.89338
C         66.49087       52.98697       92.80961
H         64.43427       50.77615       96.00110
H         66.27299       50.30360       93.66720
H         66.70401       52.00622       96.18175
H         66.83171       53.94263       94.70700
H         65.23493       53.15037       94.55958
H         68.90159       52.61730       95.17019
H         68.81493       50.87083       95.53909
H         68.64158       51.41880       93.84159
H         66.06786       53.91302       92.36737
H         67.56288       52.93943       92.52974
H         65.95772       52.12536       92.36357
N         67.30576       48.23247       95.03320
C         67.46225       47.97314       93.60563
C         68.66837       47.10952       93.30311
O         69.31227       46.61593       94.22375
C         66.18045       47.29946       93.05691
C         65.92639       45.95243       93.69579
O         65.91483       44.94109       93.01225
O         65.70603       45.85403       95.02101
H         67.67110       47.53441       95.70191
H         67.68822       48.91850       93.07504
H         66.27268       47.16637       91.95810
H         65.30010       47.94789       93.24033
N         69.02343       46.87366       92.00837
C         70.10356       45.97701       91.62400
C         71.17078       46.68563       90.79810
O         70.85372       47.71695       90.20572
C         69.49884       44.77187       90.87145
C         68.75970       45.18564       89.61609
C         67.35494       45.24250       89.61473
C         69.45856       45.53371       88.44637
C         66.66432       45.65610       88.47303
C         68.76293       45.93523       87.30170
C         67.36731       46.00114       87.31665
H         68.47314       47.32329       91.25725
H         70.55210       45.58017       92.54065
H         68.78130       44.30059       91.57933
H         70.25580       43.99839       90.62686
H         66.79421       44.98813       90.50362
H         70.53971       45.48925       88.41620
H         65.58359       45.71228       88.48730
H         69.30621       46.19877       86.40356
H         66.83026       46.31962       86.43278
N         72.44520       46.20498       90.65020
C         73.04283       45.08917       91.39029
C         72.91424       45.29953       92.88369
O         72.47509       44.39203       93.58241
C         74.52083       45.12973       90.97713
C         74.43373       45.66775       89.56866
C         73.40645       46.78231       89.73637
H         72.57578       44.13677       91.06051
H         75.06738       45.90243       91.56445
H         75.05161       44.16025       91.09444
H         75.39737       45.98580       89.11879
H         73.98510       44.87077       88.93034
H         73.84161       47.69596       90.20026
H         72.97093       47.01889       88.74060
N         73.14632       46.53330       93.41400
C         72.81826       46.88375       94.78793
C         73.72760       46.13106       95.74650
O         74.92521       46.37337       95.68933
C         72.93760       48.41184       95.00578
C         71.88906       49.19066       94.18326
C         72.05563       50.67375       94.34707
O         72.27037       51.37716       93.37241
O         71.95532       51.23875       95.56524
H         73.48389       47.27755       92.78225
H         71.75865       46.65078       94.95056
H         73.96315       48.74534       94.73120
H         72.76810       48.64448       96.08049
H         70.86843       48.91007       94.52213
H         71.97342       48.93998       93.10454
N         73.29791       45.20445       96.65781
C         71.93754       44.73564       96.86501
H         71.17875       45.17299       96.20045
H         71.90730       43.63777       96.70346
H         71.63121       44.94743       97.91005
H         74.01069       44.76972       97.26390
Ca        60.29623       49.53993      103.07976
O         61.86616       48.14478      100.49795
H         62.71830       48.48085      100.12310
H         61.22423       48.21730       99.74952
O         60.43312       46.27422      102.79112
H         61.23157       46.05424      103.33234
H         60.64282       45.93559      101.88457
O         62.89862       51.24862      102.13064
H         62.86111       52.22218      101.95414
H         63.86422       51.04975      102.22327
O         59.92930       50.68346       99.85780
H         60.76956       51.16397      100.07405
H         59.31591       51.38895       99.53327
O         63.44597       48.26922      103.23287
H         63.84771       47.78289      102.47013
H         63.32998       47.57825      103.93221

Ca 1.0



