%chk=apoCaM-CA-Ng.loop1.water4.frame1316.chk
%nprocshared=20
%mem=10GB
%nosave
#b3lyp/svp scf=(tight,noincore,xqc) Test 
#IOP(5/87=12) Density=Current Pop=(MK,readradii) iop(6/33=2) iop(6/42=6)

apoCaM-CA-Ng.loop1.water4.frame1316 

   0  1 
C         40.87139       21.40456       79.83480
C         41.52370       22.05609       81.01371
O         40.90567       22.91223       81.62165
H         39.86776       21.84736       79.65102
H         41.49551       21.54887       78.92898
H         40.75032       20.32106       80.03857
N         42.79500       21.72021       81.37311
C         43.49704       22.31131       82.50992
C         44.47675       23.35503       82.01200
O         45.68044       23.23809       82.19577
C         44.11717       21.23452       83.43317
C         45.18361       20.38130       82.79536
O         44.91633       19.63559       81.86769
O         46.43972       20.40702       83.28087
H         43.29898       21.05558       80.77056
H         42.78329       22.87101       83.15555
H         43.31255       20.57281       83.81951
H         44.56620       21.75862       84.30647
N         43.96582       24.46473       81.41451
C         44.75133       25.59282       80.93562
C         44.61957       26.77635       81.89079
O         45.66117       27.22064       82.35242
C         44.39822       25.96064       79.48064
C         44.51185       24.74699       78.54821
C         44.18730       25.13121       77.10192
C         44.18698       23.89257       76.19778
N         43.87113       24.25411       74.81700
H         42.94695       24.50650       81.33176
H         45.83011       25.31251       80.92277
H         45.09304       26.76028       79.14002
H         43.37006       26.35994       79.40217
H         43.78767       23.97142       78.88141
H         45.53888       24.32282       78.59871
H         44.93857       25.86635       76.73785
H         43.17952       25.59994       77.06217
H         43.42501       23.17012       76.56837
H         45.18394       23.39982       76.23196
H         42.93329       24.71528       74.77083
H         44.60178       24.90047       74.44013
H         43.84993       23.38699       74.23332
N         43.44380       27.33286       82.32704
C         42.07940       26.92655       81.99143
C         41.51697       26.02429       83.08780
O         42.23310       25.69525       84.02353
C         41.21455       28.16318       81.67256
C         41.16005       29.14846       82.79786
O         40.63906       28.79954       83.98740
O         41.59616       30.27485       82.63226
H         43.53416       28.06131       83.05361
H         42.04661       26.33637       81.06744
H         40.17931       27.86082       81.40944
H         41.64719       28.66449       80.77814
N         40.26457       25.50376       82.97937
C         39.72737       24.48659       83.87298
C         39.53861       24.90326       85.30828
O         39.85492       26.01849       85.69202
H         39.68441       25.76713       82.16917
H         40.39625       23.60197       83.87425
H         38.73469       24.17268       83.48443
N         38.97141       23.99656       86.15668
C         38.70015       24.25564       87.56775
C         37.76982       23.18001       88.15256
O         37.82401       22.04524       87.70235
C         40.00456       24.36523       88.39189
C         40.80811       23.09323       88.39566
O         41.26154       22.64425       87.35523
O         41.04612       22.45181       89.55609
H         38.67780       23.09709       85.74785
H         38.18330       25.22743       87.61006
H         39.75338       24.62059       89.44116
H         40.63944       25.18616       87.99967
N         36.89750       23.42428       89.17865
C         36.73228       24.70575       89.83971
C         36.12264       25.76305       88.94782
O         35.70556       25.47026       87.83363
H         36.33624       22.63448       89.53619
H         37.71388       25.04394       90.22270
H         36.05979       24.58858       90.71739
N         36.05155       27.04410       89.39889
C         35.47739       28.14354       88.62496
C         36.20800       28.35072       87.29297
O         37.33200       27.89693       87.13683
C         35.44298       29.42412       89.50526
C         34.79864       30.63654       88.83542
O         36.74307       29.77406       89.90947
H         36.40914       27.23053       90.34929
H         34.42944       27.85395       88.38841
H         34.81254       29.19117       90.39861
H         36.85125       29.50244       90.85879
H         34.75347       31.47707       89.56026
H         35.40004       30.97462       87.96595
H         33.76555       30.39415       88.51019
N         35.55360       28.96701       86.26030
C         36.05327       29.15214       84.89703
C         37.22208       30.10897       84.81256
O         38.29748       29.81260       85.31279
C         36.36154       27.79603       84.18277
C         35.08110       26.93758       84.00971
C         37.06733       27.99115       82.82108
C         34.02208       27.53451       83.06647
H         34.59112       29.29223       86.43244
H         35.24126       29.63600       84.32249
H         37.07379       27.21367       84.80411
H         34.61750       26.76292       85.00375
H         35.37556       25.94814       83.59805
H         37.25344       27.00884       82.33785
H         36.47326       28.63274       82.13899
H         38.05855       28.47146       82.95613
H         33.16188       26.83923       82.99088
H         33.63010       28.50299       83.43466
H         34.42769       27.67421       82.04307
N         37.07548       31.25579       84.08385
C         38.17320       32.13540       83.72216
C         38.08230       33.48926       84.39470
O         39.01297       34.26241       84.22099
C         38.27542       32.25898       82.17640
C         37.03628       32.87828       81.51209
O         38.48549       30.98421       81.62148
H         36.14192       31.49348       83.71995
H         39.12393       31.69568       84.07678
H         39.13601       32.93123       81.93849
H         39.40595       30.96349       81.25179
H         37.20832       32.97096       80.41849
H         36.13829       32.24115       81.64788
H         36.83015       33.88946       81.92035
N         37.03431       33.84911       85.19748
C         37.03995       35.10140       85.94960
C         38.17046       35.05298       86.97115
O         38.03022       34.39392       87.98932
C         35.66457       35.37273       86.62150
C         34.60647       35.74814       85.57993
O         35.21339       34.24079       87.32691
H         36.23125       33.21338       85.29762
H         37.23611       35.93853       85.24239
H         35.74429       36.25227       87.30283
H         35.56612       34.29560       88.25072
H         33.63571       35.94657       86.08279
H         34.91181       36.67360       85.04520
H         34.46387       34.93465       84.83809
N         39.36049       35.66755       86.69382
C         40.57667       35.61346       87.50717
C         41.07463       34.19486       87.71745
O         40.32395       33.34591       88.17120
C         40.46862       36.36040       88.83770
C         39.95244       37.79461       88.63538
C         40.39734       38.76017       89.74504
C         40.15332       38.29241       91.18717
N         38.74162       38.04997       91.46962
H         39.43740       36.18707       85.80629
H         41.36374       36.16598       86.94382
H         41.50635       36.39332       89.24009
H         39.82793       35.82929       89.57363
H         38.84571       37.76012       88.53194
H         40.36172       38.22417       87.69367
H         39.90402       39.74114       89.57112
H         41.49425       38.91433       89.63983
H         40.53438       39.08548       91.86824
H         40.73998       37.37000       91.39222
H         38.64423       37.80494       92.48147
H         38.18094       38.90862       91.26897
H         38.38900       37.24855       90.89985
N         42.36167       33.86316       87.43014
C         42.82307       32.48275       87.47810
C         42.08766       31.69358       86.37540
O         42.57125       30.39800       86.18113
C         44.36421       32.38945       87.38608
C         45.01925       32.97973       88.64498
C         46.51487       32.88274       88.57473
O         47.11198       31.68048       88.46338
O         47.19786       33.89260       88.63250
H         43.01609       34.60211       87.13173
H         42.55224       32.01476       88.45170
H         44.75248       32.90492       86.48758
H         44.65948       31.31876       87.32570
H         44.67314       32.41790       89.54061
H         44.72219       34.04377       88.76477
N         41.82262       32.40148       85.11310
C         43.01086       32.84431       84.38852
H         43.74274       32.01822       84.26823
H         42.70746       33.20624       83.38306
H         43.46606       33.71469       84.89978
H         41.28244       31.75350       84.50598
Ca        40.83943       29.11751       86.92752
O         39.81502       27.58366       89.37866
H         40.25511       27.67101       90.26085
H         38.95970       27.12613       89.57239
O         38.96846       30.91343       88.45634
H         38.76689       29.94822       88.38150
H         38.34105       31.34629       87.82466
O         42.88462       28.72554       89.17234
H         43.65657       28.65559       88.55653
H         42.80087       27.82208       89.56878
O         43.20532       27.13112       86.34875
H         42.35605       27.34034       85.88742
H         43.02036       26.28555       86.82889

Ca 1.0



