%chk=apoCaM-CA-Ng.loop2.water3.frame1317.chk
%nprocshared=20
%mem=10GB
%nosave
#b3lyp/svp scf=(tight,noincore,xqc) Test 
#IOP(5/87=12) Density=Current Pop=(MK,readradii) iop(6/33=2) iop(6/42=6)

apoCaM-CA-Ng.loop2.water3.frame1317 

   -2  1 
C         60.83954       34.19295       84.12110
C         59.37754       34.55454       84.10587
O         59.08770       35.65798       83.66685
H         61.38480       34.93524       84.74042
H         61.08274       33.19369       84.51150
H         61.22799       34.24416       83.08234
N         58.36631       33.74525       84.53817
C         58.47920       32.40263       85.10469
C         57.92807       32.36929       86.52740
O         57.75476       31.27676       87.05069
C         57.78637       31.38772       84.15665
C         56.35689       31.73297       83.87164
O         56.01975       32.06459       82.74608
O         55.45534       31.75185       84.86284
H         57.40774       34.12364       84.45993
H         59.51823       32.04540       85.18373
H         57.84361       30.35773       84.57043
H         58.34583       31.39426       83.19521
N         57.70718       33.51618       87.24773
C         57.19947       33.50875       88.61524
C         55.99144       34.42800       88.74326
O         55.91637       35.19916       89.69116
C         58.32646       33.92522       89.57206
H         57.94171       34.43303       86.84003
H         56.87581       32.48445       88.90034
H         59.18827       33.23239       89.46955
H         58.67205       34.95564       89.33604
H         57.97901       33.89445       90.62696
N         55.01570       34.42286       87.79281
C         53.82352       35.26945       87.85801
C         52.57449       34.42113       87.66791
O         52.68976       33.21931       87.46254
C         53.94127       36.41632       86.82086
C         54.05890       35.90380       85.41756
O         53.06081       35.17514       84.88811
O         55.09769       36.05499       84.79344
H         55.14114       33.82050       86.96406
H         53.74373       35.75576       88.85376
H         54.85115       37.00618       87.07343
H         53.07248       37.10329       86.88528
N         51.33748       34.99231       87.68728
C         50.12315       34.23344       87.43238
C         49.68456       34.38768       85.99566
O         50.32062       35.10961       85.24068
H         51.25305       36.01150       87.81637
H         49.32132       34.58229       88.11844
H         50.28123       33.15253       87.63365
N         48.58998       33.71358       85.54534
C         48.08347       33.82885       84.18252
C         46.68550       34.39794       84.23510
O         45.80420       33.76386       84.80039
C         48.05897       32.45622       83.47602
C         49.42054       31.85754       83.21594
N         49.51244       30.66026       82.59168
O         50.43976       32.44538       83.54698
H         48.07903       33.10721       86.20603
H         48.71925       34.51112       83.57588
H         47.56468       32.57610       82.48685
H         47.46063       31.73988       84.08105
H         48.66325       30.15343       82.30066
H         50.43126       30.23771       82.39511
N         46.41804       35.61160       83.67656
C         45.09920       36.22068       83.68406
C         45.08949       37.48003       84.52023
O         46.11359       37.81961       85.09721
H         47.18464       36.14391       83.23673
H         44.34171       35.52895       84.10825
H         44.81426       36.45281       82.63630
N         43.96799       38.23727       84.68239
C         42.67506       37.97426       84.05687
C         42.22792       39.14615       83.18422
O         41.09836       39.10132       82.71853
C         41.62360       37.63744       85.14348
C         41.97089       36.32502       85.86167
O         41.52606       38.68890       86.06868
H         44.03116       39.05807       85.30624
H         42.70990       37.09603       83.37973
H         40.63993       37.48735       84.63924
H         40.69252       38.53675       86.58680
H         42.02183       35.49141       85.12755
H         42.94455       36.40098       86.38884
H         41.18242       36.07654       86.60305
N         43.05279       40.20040       82.88329
C         42.67533       41.30378       81.99580
C         43.63897       41.37257       80.79692
O         44.82320       41.56943       81.02664
C         42.60184       42.65799       82.77995
C         42.17499       43.79768       81.81245
C         43.89719       43.01424       83.54261
C         41.88095       45.13264       82.49718
H         44.00660       40.21641       83.26871
H         41.64476       41.14842       81.63364
H         41.80366       42.53688       83.54675
H         41.24326       43.49058       81.28993
H         42.96249       43.96353       81.04488
H         44.16913       42.21461       84.26040
H         44.74686       43.19568       82.85578
H         43.75355       43.92611       84.15595
H         41.54373       45.86548       81.73340
H         41.07518       45.00935       83.25078
H         42.78538       45.55166       82.98159
N         43.24507       41.27286       79.48368
C         41.89035       40.96878       79.03148
C         41.69048       41.21202       77.53486
O         42.38801       40.62137       76.72200
C         41.52300       39.49580       79.33936
C         42.43802       38.49157       78.68942
O         43.74845       38.46447       79.00008
O         41.99121       37.68048       77.89444
H         43.96750       41.42053       78.76152
H         41.17813       41.63561       79.55990
H         40.47485       39.31811       79.01041
H         41.56325       39.30163       80.41550
N         40.65700       42.00288       77.11708
C         40.20342       42.10213       75.73258
C         40.10986       43.55993       75.28918
O         39.48675       44.33425       76.00302
C         38.78409       41.49751       75.65951
C         38.24920       41.52293       74.24881
C         38.77481       40.65907       73.27364
C         37.23608       42.42867       73.89241
C         38.29561       40.70495       71.96117
C         36.76770       42.47875       72.57706
C         37.29597       41.61714       71.61225
H         40.08133       42.47615       77.83051
H         40.85521       41.50999       75.06045
H         38.12192       42.08979       76.33038
H         38.77209       40.45092       76.03497
H         39.55499       39.95290       73.53035
H         36.82481       43.11056       74.62640
H         38.70304       40.03706       71.21350
H         35.99808       43.18938       72.30555
H         36.93158       41.65769       70.59426
N         40.60784       44.01235       74.09463
C         41.33513       43.22334       73.11374
C         42.72371       42.90609       73.62786
O         43.16646       41.77865       73.46864
C         41.29110       44.10228       71.85677
C         41.30841       45.50743       72.40845
C         40.40222       45.37564       73.63341
H         40.82467       42.27968       72.83341
H         42.04690       43.86481       71.07828
H         40.28113       43.97263       71.40051
H         42.34715       45.71790       72.73125
H         41.00937       46.30837       71.69943
H         40.69017       46.14056       74.38686
H         39.32823       45.48672       73.36590
N         43.41436       43.81947       74.36288
C         44.68501       43.53128       75.00626
C         45.78915       43.52909       73.95961
O         45.99254       44.56157       73.33628
C         44.96269       44.59622       76.09369
C         43.88030       44.56647       77.19538
C         44.08206       45.66729       78.19375
O         43.21057       46.50585       78.36394
O         45.21729       45.73227       78.91371
H         42.97679       44.73023       74.54980
H         44.60837       42.55827       75.53550
H         44.98299       45.60409       75.62140
H         45.95406       44.40583       76.56010
H         43.90774       43.58896       77.71866
H         42.86680       44.68386       76.75607
N         46.55491       42.43623       73.67843
C         46.40459       41.15080       74.32431
H         45.39234       40.74077       74.13363
H         47.14588       40.43448       73.91038
H         46.57705       41.24574       75.41634
H         47.28572       42.52197       72.95456
Ca        53.70338       33.08068       84.49764
O         51.80551       30.60608       85.49320
H         51.20962       30.87809       86.23567
H         51.25171       29.99850       84.94138
O         52.90114       34.00668       81.61702
H         52.18624       34.54317       81.19133
H         53.08660       33.28165       80.96892
O         53.14132       30.64918       82.24294
H         53.79526       29.93833       82.46000
H         53.13151       30.68398       81.25340

Ca 1.0



