%chk=apoCaM-CA-Ng.loop2.water4.frame1306.chk
%nprocshared=20
%mem=10GB
%nosave
#b3lyp/svp scf=(tight,noincore,xqc) Test 
#IOP(5/87=12) Density=Current Pop=(MK,readradii) iop(6/33=2) iop(6/42=6)

apoCaM-CA-Ng.loop2.water4.frame1306 

   -2  1 
C         38.75024       32.16776       83.80802
C         38.67707       33.61362       84.20249
O         39.66442       34.12297       84.71363
H         39.75316       31.75359       84.04834
H         37.98549       31.58206       84.35624
H         38.59191       32.07496       82.71253
N         37.57807       34.38828       83.97758
C         36.33353       33.92776       83.34579
C         35.06742       34.30260       84.13495
O         34.01172       33.82263       83.74425
C         36.22046       34.51082       81.90473
C         36.17030       36.01703       81.91410
O         36.05355       36.77803       80.81953
O         36.25437       36.60815       82.96788
H         37.68452       35.37871       84.23258
H         36.34608       32.82283       83.25431
H         35.30209       34.11961       81.41513
H         37.09734       34.18460       81.30575
N         35.06182       35.19032       85.18412
C         33.83631       35.59488       85.87632
C         33.49512       37.07967       85.71367
O         32.44257       37.46217       86.20734
C         33.95497       35.24556       87.36135
H         35.94075       35.61670       85.50548
H         32.96433       35.03672       85.47090
H         34.79322       35.80832       87.82514
H         33.01452       35.49875       87.89739
H         34.13906       34.15726       87.48066
N         34.28460       37.96918       85.03265
C         33.92732       39.37479       84.84164
C         33.65276       39.69277       83.38742
O         33.71796       38.80474       82.54944
C         34.99616       40.29867       85.46584
C         36.33297       40.52062       84.77941
O         37.13760       41.22503       85.36784
O         36.68920       40.07713       83.54949
H         35.17131       37.65933       84.63800
H         32.98339       39.59510       85.38556
H         35.18325       39.92899       86.49761
H         34.55653       41.31363       85.57288
N         33.31408       40.96049       83.02575
C         33.05045       41.37157       81.66114
C         34.02631       42.44891       81.26522
O         34.09405       43.46219       81.94725
H         33.24094       41.68535       83.75482
H         32.01919       41.78105       81.60884
H         33.10882       40.51853       80.95082
N         34.78767       42.31618       80.14317
C         35.69815       43.35067       79.67188
C         35.09661       43.97232       78.44114
O         34.85609       43.27459       77.46391
C         37.09585       42.78433       79.36103
C         37.79842       42.31793       80.60723
N         38.96404       42.88100       81.00234
O         37.31129       41.42052       81.26974
H         34.66474       41.47753       79.55540
H         35.82390       44.14989       80.43543
H         37.70292       43.58692       78.88743
H         37.02007       41.94312       78.63724
H         39.39827       43.64095       80.45930
H         39.43553       42.55650       81.85951
N         34.80918       45.30116       78.43082
C         34.18389       45.92677       77.28403
C         34.02555       47.42879       77.43045
O         34.41999       47.99082       78.44221
H         35.04079       45.86297       79.26305
H         33.18630       45.46035       77.13428
H         34.82114       45.74427       76.39029
N         33.49912       48.18538       76.42823
C         32.98672       47.64083       75.17641
C         33.95866       47.86287       74.03507
O         33.65552       47.41383       72.94013
C         31.56997       48.18906       74.89095
C         30.58458       47.74608       75.97793
O         31.57964       49.59171       74.82377
H         33.49411       49.21125       76.54621
H         32.89104       46.53830       75.22299
H         31.18826       47.76431       73.93255
H         31.90358       49.83537       73.91814
H         30.54389       46.63615       76.02880
H         30.88558       48.13732       76.97296
H         29.56636       48.12172       75.74377
N         35.17528       48.46316       74.21017
C         36.17903       48.47645       73.15055
C         36.63586       47.02288       72.95759
O         37.10539       46.46055       73.93778
C         37.40955       49.36830       73.51712
C         36.97278       50.82976       73.81657
C         38.43256       49.33943       72.35896
C         38.12245       51.73427       74.26900
H         35.42532       48.85210       75.12916
H         35.72205       48.94368       72.26124
H         37.89307       48.95180       74.42935
H         36.23103       50.83938       74.64036
H         36.48998       51.27553       72.91988
H         38.74988       48.30393       72.13340
H         37.99063       49.77564       71.43748
H         39.35656       49.89330       72.61495
H         38.87546       51.87215       73.46784
H         37.72264       52.73848       74.52273
H         38.61377       51.31055       75.17071
N         36.55203       46.30751       71.79579
C         36.06889       46.78196       70.50926
C         37.19118       46.70021       69.49067
O         37.69047       45.61802       69.21833
C         34.79900       46.00449       70.07846
C         34.91898       44.50132       70.07427
O         35.67152       43.93184       69.30225
O         34.15212       43.77065       70.90689
H         36.88409       45.32992       71.82601
H         35.75251       47.83419       70.55355
H         34.46836       46.35203       69.07565
H         33.99112       46.26113       70.79191
N         37.63283       47.83457       68.87938
C         38.61399       47.84673       67.80468
C         39.79183       48.74832       68.17029
O         39.52551       49.87762       68.56362
C         37.91865       48.43210       66.55349
C         38.76833       48.28519       65.31882
C         38.89006       47.02671       64.70499
C         39.44298       49.38769       64.77025
C         39.67559       46.87380       63.56019
C         40.23974       49.22704       63.63186
C         40.35402       47.97213       63.02641
H         37.20825       48.73779       69.14318
H         38.94510       46.81483       67.56831
H         37.68104       49.50283       66.74563
H         36.94742       47.92553       66.35953
H         38.36931       46.16770       65.11055
H         39.36830       50.36395       65.23267
H         39.75900       45.90311       63.08882
H         40.77063       50.07512       63.21985
H         40.96770       47.85023       62.14356
N         41.10899       48.40345       67.97767
C         41.57551       47.17978       67.33317
C         41.77861       46.00403       68.26696
O         42.09888       44.93034       67.77579
C         42.96567       47.56592       66.78333
C         42.88338       49.07809       66.68010
C         42.16182       49.39658       67.97909
H         40.90653       46.95073       66.48278
H         43.74422       47.37750       67.56208
H         43.27140       47.02199       65.86439
H         43.86603       49.58192       66.56343
H         42.22370       49.34934       65.82669
H         42.83667       49.20340       68.84439
H         41.81284       50.45055       68.01995
N         41.77327       46.16411       69.62277
C         42.25665       45.12714       70.53169
C         43.72991       44.85996       70.22105
O         44.51407       45.79570       70.30418
C         42.15565       45.58911       72.00318
C         40.70626       45.78488       72.46567
C         40.66509       46.28883       73.88044
O         41.16426       47.36676       74.16400
O         40.06910       45.55896       74.84205
H         41.51657       47.08114       70.01629
H         41.63757       44.21416       70.41325
H         42.72111       46.54102       72.12464
H         42.62440       44.82143       72.65956
H         40.16966       44.81381       72.39928
H         40.18514       46.51600       71.81746
N         44.21169       43.64128       69.84606
C         43.39812       42.45404       69.71373
H         42.61374       42.60751       68.94442
H         44.03298       41.59964       69.39548
H         42.93267       42.20214       70.68942
H         45.22038       43.55270       69.64483
Ca        36.28261       38.87038       81.65245
O         38.92443       39.13883       79.25871
H         38.71501       38.85079       78.33484
H         39.91181       39.08920       79.31590
O         35.46145       38.95413       78.83233
H         34.48515       38.83646       78.71730
H         35.75366       39.44867       78.02653
O         39.29879       36.69264       81.55014
H         39.33554       36.41175       80.60137
H         40.10785       36.29537       81.95960
O         39.71668       39.62266       82.52691
H         40.26511       40.06671       81.83235
H         39.71387       40.25872       83.28570

Ca 1.0



