%chk=apoCaM-CA-Ng.loop3.water3.frame669.chk
%nprocshared=20
%mem=10GB
%nosave
#b3lyp/svp scf=(tight,noincore,xqc) Test 
#IOP(5/87=12) Density=Current Pop=(MK,readradii) iop(6/33=2) iop(6/42=6)

apoCaM-CA-Ng.loop3.water3.frame669 

   0  1 
C         -0.65880       59.50485       99.73468
C         -0.16049       60.71031      100.47401
O         -0.73474       61.78143      100.33894
H         -1.54459       59.75609       99.11381
H          0.14422       59.10745       99.08037
H         -0.95094       58.72164      100.46722
N          0.90355       60.59007      101.31274
C          1.39255       61.68574      102.13698
C          1.96215       62.81449      101.28206
O          2.91440       62.60134      100.54545
C          2.41065       61.14441      103.16641
C          2.81182       62.12822      104.23229
O          3.61294       61.72523      105.23522
O          2.42566       63.28400      104.20597
H          1.33670       59.65839      101.41257
H          0.53615       62.05725      102.72937
H          3.31575       60.76273      102.64893
H          1.93108       60.29683      103.69964
N          1.40799       64.05705      101.35755
C          1.87575       65.23950      100.62849
C          3.31787       65.56672      100.98231
O          4.10993       65.75175      100.06899
C          0.94851       66.43855      100.95691
C         -0.43910       66.24928      100.30875
C         -1.52755       67.11402      100.96122
C         -2.88158       66.90135      100.25650
N         -3.98209       67.48114      101.02577
H          0.60649       64.17292      101.99763
H          1.82123       65.07020       99.52877
H          1.36449       67.40160      100.58568
H          0.86729       66.51050      102.05935
H         -0.76340       65.19723      100.42337
H         -0.35778       66.45488       99.21840
H         -1.26261       68.19296      100.93973
H         -1.61164       66.79519      102.02360
H         -3.08709       65.81712      100.12911
H         -2.84260       67.35536       99.24204
H         -3.82095       68.49880      101.19745
H         -4.87536       67.35346      100.49708
H         -4.07194       66.97925      101.93802
N          3.73735       65.62893      102.27905
C          5.10142       65.99178      102.66697
C          5.93463       64.81064      103.16322
O          7.08890       65.03400      103.49203
C          5.06313       67.16455      103.67439
C          4.24654       66.90028      104.91343
O          4.56575       65.90126      105.75015
O          3.29632       67.61733      105.18004
H          3.06239       65.40158      103.02221
H          5.66672       66.36074      101.78326
H          4.62861       68.04664      103.15588
H          6.09909       67.42971      103.97653
N          5.47280       63.52751      103.16207
C          6.28662       62.36116      103.49945
C          6.73593       62.23005      104.95217
O          7.40721       61.25080      105.23847
H          4.52942       63.34842      102.80252
H          7.18515       62.35138      102.84461
H          5.69965       61.44607      103.26530
N          6.42894       63.14818      105.91588
C          6.87347       63.04630      107.30944
C          5.69266       63.05722      108.27630
O          4.56654       63.31681      107.88042
C          7.78938       64.24780      107.66385
C          9.18461       64.17029      107.08425
N          9.41088       64.15780      105.75274
O         10.13811       64.13664      107.84807
H          5.87235       63.96362      105.65704
H          7.42486       62.09758      107.48611
H          7.92019       64.29298      108.76683
H          7.29504       65.19744      107.35923
H          8.63866       64.19504      105.08392
H         10.37394       64.11541      105.38780
N          5.92494       62.80207      109.60160
C          4.94018       62.95271      110.66163
C          3.70694       62.10724      110.46497
O          3.80737       60.89041      110.40104
H          6.87789       62.53628      109.89077
H          4.66149       64.02615      110.72155
H          5.40581       62.67861      111.63352
N          2.49623       62.72102      110.34634
C          1.23660       62.02972      110.10256
C          0.82950       62.28800      108.62007
O          0.95597       63.68251      108.45524
C          0.11973       62.57788      111.04598
C          0.44411       62.67219      112.51536
C          0.86966       61.55509      113.24882
C          0.26816       63.90232      113.17845
C          1.12352       61.67140      114.62160
C          0.51096       64.01282      114.54763
C          0.94132       62.90118      115.27478
O          1.17096       63.02649      116.59726
H          2.47158       63.75196      110.37307
H          1.35072       60.93527      110.26584
H         -0.78164       61.93772      110.95159
H         -0.17159       63.59274      110.69592
H          1.00246       60.59825      112.76135
H         -0.07750       64.77781      112.64128
H          1.45428       60.80467      115.17852
H          0.35748       64.96389      115.04341
H          1.46941       62.28444      117.14130
N         -0.55011       61.80723      108.36312
C         -0.97779       61.45088      106.98639
C         -1.08177       62.70847      106.09760
O         -0.07308       62.81661      105.13640
C         -0.19019       60.27227      106.30993
C         -0.79177       59.86224      104.92436
C         -0.09041       59.03217      107.21291
C         -2.19837       59.24792      104.95614
H         -0.73682       60.96402      108.95267
H         -2.01815       61.08785      107.12785
H          0.85017       60.62017      106.12565
H         -0.11942       59.11918      104.44467
H         -0.82345       60.73261      104.24399
H         -1.09839       58.66189      107.49349
H          0.45746       58.22183      106.68557
H          0.47465       59.25881      108.13882
H         -2.94630       59.91861      105.41477
H         -2.52674       59.04270      103.91469
H         -2.20318       58.28934      105.51008
N         -2.42453       62.95160      105.56546
C         -2.49906       63.99829      104.53355
C         -3.77040       64.79584      104.70245
O         -3.82526       65.92601      104.23859
C         -2.47450       63.34926      103.13822
O         -2.50754       64.31955      102.13879
H         -2.88503       62.07521      105.24185
H         -1.64938       64.70627      104.65270
H         -3.35899       62.67978      103.03082
H         -1.55434       62.74586      103.03295
H         -2.44839       63.81918      101.28367
N         -4.85643       64.25163      105.31836
C         -6.12432       64.94864      105.44644
C         -6.00695       66.17049      106.34204
O         -5.09085       66.21774      107.15193
C         -7.14914       63.99206      106.06447
H         -4.80128       63.28375      105.66633
H         -6.45534       65.23031      104.42786
H         -8.12062       64.48421      106.21015
H         -7.28365       63.10636      105.40757
H         -6.79897       63.64766      107.06178
N         -6.92594       67.18125      106.33299
C         -7.97641       67.35378      105.32809
C         -9.03971       68.31232      105.84345
O         -8.66832       69.38905      106.29144
C         -7.36911       67.94366      104.04719
H         -6.80614       67.92360      107.04079
H         -8.43243       66.38843      105.06585
H         -6.90929       68.93412      104.25153
H         -6.58488       67.28705      103.62269
H         -8.16240       68.06884      103.27884
N        -10.38347       68.06703      105.79318
C        -11.03625       66.91229      105.17728
C        -10.75321       65.62368      105.92079
O        -10.32319       64.67160      105.28482
C        -12.55556       67.17711      105.08101
C        -13.31539       66.05868      104.35001
C        -14.74368       66.45597      104.10804
O        -15.00011       67.42644      103.41211
O        -15.74885       65.73543      104.63950
H        -10.99479       68.81599      106.15766
H        -10.67720       66.81978      104.12668
H        -12.68139       68.12003      104.50291
H        -12.99614       67.32695      106.09152
H        -13.28251       65.12855      104.95801
H        -12.84249       65.85489      103.36522
N        -10.98269       65.51507      107.25879
C        -10.71624       64.30563      108.01458
H         -9.96066       64.52107      108.79905
H        -11.65162       63.95791      108.49944
H        -10.32664       63.48174      107.37911
H        -11.34699       66.32973      107.77438
Ca         0.95223       64.32388      106.33217
O          0.02678       66.55327      107.95641
H          0.31213       66.64107      108.90006
H         -0.85540       66.10555      108.00218
O          3.26103       66.07702      108.45504
H          2.94956       66.12491      109.39332
H          4.01668       66.71543      108.41156
O          0.15384       66.51532      104.62127
H         -0.11035       67.30460      105.15560
H          1.09011       66.69272      104.35887

Ca 1.0



