%chk=apoCaM-CA-Ng.loop1.water4.frame181.chk
%nprocshared=20
%mem=10GB
%nosave
#b3lyp/svp scf=(tight,noincore,xqc) Test 
#IOP(5/87=12) Density=Current Pop=(MK,readradii) iop(6/33=2) iop(6/42=6)

apoCaM-CA-Ng.loop1.water4.frame181 

   0  1 
C        106.49717       61.24881       14.09705
C        106.08769       62.53616       14.75093
O        104.99542       63.00911       14.47097
H        107.50148       60.91943       14.43600
H        105.76067       60.45582       14.34393
H        106.52448       61.38689       12.99529
N        106.92291       63.17165       15.62380
C        106.59075       64.44226       16.26457
C        107.51495       65.53986       15.75592
O        108.13686       66.25197       16.53172
C        106.53012       64.28188       17.80500
C        107.78582       63.80025       18.49283
O        108.81566       63.58086       17.87594
O        107.76286       63.60028       19.82453
H        107.84203       62.74749       15.81378
H        105.57312       64.76727       15.95683
H        105.72769       63.54655       18.03302
H        106.23656       65.25328       18.25783
N        107.61709       65.71963       14.40921
C        108.38409       66.76277       13.73906
C        107.51785       67.44137       12.69209
O        106.88531       66.72519       11.92697
C        109.56170       66.14481       12.96678
C        110.78721       65.87540       13.84036
C        111.95279       65.44368       12.94046
C        113.28647       65.43658       13.68815
N        114.37544       65.07590       12.78028
H        107.11338       65.05453       13.80229
H        108.79138       67.49994       14.45187
H        109.90590       66.89437       12.22473
H        109.23890       65.24362       12.39943
H        110.57747       65.11528       14.62304
H        111.06318       66.83346       14.33589
H        112.05756       66.17124       12.10560
H        111.73609       64.44225       12.50882
H        113.24676       64.71957       14.53608
H        113.47886       66.45649       14.09302
H        114.22935       64.10759       12.41357
H        114.41637       65.74992       11.98014
H        115.28274       65.11529       13.29702
N        107.50928       68.78680       12.45807
C        108.19465       69.85107       13.19011
C        109.71085       69.66165       13.31328
O        110.21333       69.67013       14.42933
C        107.51290       70.10302       14.55361
C        106.01823       70.14838       14.40558
O        105.32586       69.37644       15.04677
O        105.43981       70.96930       13.50975
H        106.95599       69.10432       11.64519
H        108.04019       70.78340       12.60598
H        107.88554       71.06530       14.95858
H        107.76354       69.30638       15.28370
N        110.53850       69.49958       12.24113
C        110.07952       69.44028       10.86455
C        111.20751       69.07332        9.91879
O        111.98802       68.19690       10.26326
H        111.54647       69.38128       12.43467
H        109.57758       70.38839       10.59204
H        109.34634       68.61892       10.76835
N        111.31578       69.57574        8.65604
C        110.37873       70.52267        8.06012
C        110.58321       71.93497        8.59269
O        111.48494       72.16504        9.38793
C        110.48110       70.46622        6.51260
C        111.80746       70.88123        5.92578
O        111.96214       70.83754        4.71588
O        112.82562       71.29563        6.70461
H        112.05620       69.17377        8.05886
H        109.34323       70.18980        8.29312
H        109.69113       71.10194        6.06163
H        110.27525       69.41999        6.19532
N        109.78419       72.94673        8.15295
C        109.97669       74.33720        8.52135
C        109.57469       74.69073        9.93683
O        109.69290       75.86414       10.26108
H        109.05030       72.74043        7.45982
H        109.33714       74.96130        7.85923
H        111.03352       74.62614        8.33241
N        109.05423       73.78524       10.82063
C        108.55595       74.17903       12.13864
C        109.34065       73.50474       13.25572
O        110.11316       72.59444       12.99542
C        107.04588       73.84936       12.22655
C        106.23776       74.56085       11.13792
O        106.53870       74.23352       13.47487
H        108.95428       72.79763       10.54707
H        108.68492       75.27370       12.28517
H        106.92691       72.75003       12.08111
H        105.89256       73.53286       13.75070
H        106.56693       74.24103       10.12677
H        105.16285       74.30849       11.24673
H        106.34892       75.66153       11.22891
N        109.23963       73.98116       14.53210
C        109.96754       73.44371       15.68171
C        109.02704       73.17906       16.87130
O        109.51417       72.97640       17.97484
C        111.15662       74.38902       16.05119
C        110.70204       75.81831       16.44435
C        112.17193       74.41810       14.88781
C        111.84902       76.69261       16.96450
H        108.66094       74.82005       14.69157
H        110.43751       72.46602       15.43532
H        111.67759       73.93585       16.92401
H        109.95066       75.74816       17.25864
H        110.23171       76.32832       15.57644
H        112.48760       73.38480       14.62842
H        111.73173       74.89139       13.98453
H        113.09335       74.96888       15.16052
H        112.61742       76.87143       16.18542
H        111.45264       77.68328       17.27021
H        112.32699       76.21543       17.84654
N        107.67067       73.12418       16.70996
C        106.70599       72.91810       17.79302
C        106.93389       71.62583       18.55628
O        107.04258       70.56912       17.94840
C        105.25110       72.86046       17.24560
C        104.78925       74.17535       16.62111
O        104.35915       72.56040       18.29490
H        107.29450       73.22675       15.76075
H        106.76451       73.77381       18.50212
H        105.20948       72.06646       16.46030
H        103.94436       71.67986       18.09924
H        103.75836       74.04616       16.22695
H        104.78083       74.97862       17.38669
H        105.44068       74.49311       15.79017
N        106.81867       71.64274       19.91547
C        106.71586       70.44693       20.73905
C        105.29232       70.39141       21.26492
O        104.84970       71.36445       21.86454
C        107.71868       70.47587       21.91496
C        109.16155       70.63710       21.41954
O        107.59036       69.27285       22.63421
H        106.66673       72.54933       20.38645
H        106.92323       69.53166       20.14062
H        107.47421       71.33428       22.58266
H        108.23669       69.29929       23.38701
H        109.44071       69.79530       20.75232
H        109.27915       71.59633       20.87326
H        109.85643       70.65485       22.28667
N        104.52076       69.27991       21.09677
C        103.15209       69.18618       21.60845
C        102.16197       68.58542       20.62195
O        100.98375       68.55224       20.94335
C        103.17922       68.42618       22.93793
C        103.58327       66.94199       22.80360
C        104.04094       66.37401       24.15372
C        105.45337       66.88926       24.51435
N        105.85781       66.45073       25.84523
H        104.96982       68.44737       20.68806
H        102.77758       70.20751       21.84482
H        102.19491       68.48087       23.45410
H        103.89242       68.99035       23.56693
H        104.41018       66.78337       22.08159
H        102.69813       66.38670       22.42167
H        104.09797       65.26615       24.08273
H        103.29548       66.63525       24.93624
H        105.51290       67.99480       24.49198
H        106.17714       66.50660       23.75868
H        106.83283       66.78384       26.02612
H        105.22099       66.87497       26.55845
H        105.83060       65.40852       25.91161
N        102.55496       68.08920       19.41215
C        101.63467       67.52967       18.43426
C        101.98241       66.07173       18.21762
O        103.09425       65.77127       17.80487
C        101.75206       68.33665       17.12990
C        101.28943       69.78742       17.34016
C        101.55306       70.61985       16.12530
O        100.63380       71.14586       15.51940
O        102.82031       70.82330       15.72509
H        103.54616       68.10485       19.14321
H        100.58134       67.59126       18.78507
H        101.13006       67.87327       16.33217
H        102.81491       68.32344       16.80253
H        101.83907       70.25718       18.18273
H        100.20449       69.78825       17.58387
N        101.07031       65.10109       18.50443
C        101.36709       63.69387       18.34980
H        102.22403       63.41434       18.99929
H        100.48522       63.08748       18.64889
H        101.61277       63.46942       17.29071
H        100.13745       65.36338       18.85635
Ca       103.25548       70.66528       13.00512
O        102.57779       73.54937       13.49873
H        101.65616       73.42296       13.15901
H        102.60470       74.49034       13.80447
O        100.75650       68.90384       12.63264
H         99.83550       69.22207       12.45922
H        100.68839       67.91657       12.60251
O        103.06740       67.40571       13.90093
H        103.60510       67.53404       14.72042
H        103.73535       67.36494       13.17161
O        104.18610       71.96012       10.65328
H        104.30090       71.64617        9.72247
H        103.40074       72.56286       10.62190

Ca 1.0



