%chk=apoCaM-CA-Ng.loop1.water5.frame665.chk
%nprocshared=20
%mem=10GB
%nosave
#b3lyp/svp scf=(tight,noincore,xqc) Test 
#IOP(5/87=12) Density=Current Pop=(MK,readradii) iop(6/33=2) iop(6/42=6)

apoCaM-CA-Ng.loop1.water5.frame665 

   0  1 
C          1.41192       31.77034       -3.03785
C          0.62664       30.76949       -3.83297
O         -0.29911       31.15185       -4.53392
H          2.47666       31.74540       -3.34922
H          1.01324       32.79664       -3.18532
H          1.34377       31.51706       -1.95798
N          0.93760       29.44630       -3.74694
C          0.19500       28.39663       -4.44088
C         -1.28769       28.47102       -4.10128
O         -1.63274       28.62621       -2.93851
C          0.78726       26.99477       -4.16757
C          0.75110       26.54528       -2.72340
O          1.38662       27.14627       -1.87262
O          0.04165       25.45362       -2.36694
H          1.73406       29.18525       -3.14810
H          0.30684       28.55885       -5.53677
H          1.84141       26.97135       -4.52018
H          0.22435       26.27638       -4.79618
N         -2.21523       28.41694       -5.10046
C         -3.63826       28.68730       -4.92138
C         -4.48572       27.42633       -5.12966
O         -5.69771       27.54060       -5.22283
C         -3.99598       29.83131       -5.90406
C         -5.36964       30.48633       -5.67011
C         -5.57385       31.66315       -6.63391
C         -6.90991       32.37450       -6.37690
N         -7.07056       33.51867       -7.27440
H         -1.89268       28.21697       -6.06054
H         -3.83494       29.06912       -3.89946
H         -3.91383       29.46470       -6.95138
H         -3.23916       30.63576       -5.76083
H         -5.40872       30.86135       -4.62510
H         -6.19706       29.76745       -5.82207
H         -5.55182       31.29139       -7.68192
H         -4.74519       32.39244       -6.50062
H         -6.94906       32.73043       -5.32462
H         -7.75105       31.66299       -6.52902
H         -7.08146       33.19649       -8.26924
H         -7.97506       33.99805       -7.06195
H         -6.28874       34.19971       -7.13421
N         -3.92589       26.17910       -5.14796
C         -4.68893       24.95099       -5.36972
C         -4.69702       24.03182       -4.15095
O         -3.63580       23.61567       -3.72656
C         -4.15713       24.17568       -6.59895
C         -2.68548       24.27163       -6.97228
O         -2.42148       24.53526       -8.13469
O         -1.63672       24.08360       -6.14066
H         -2.91542       26.08431       -4.98339
H         -5.74459       25.18645       -5.59548
H         -4.70463       24.56430       -7.48636
H         -4.45975       23.10819       -6.52049
N         -5.84866       23.58141       -3.55492
C         -7.21084       23.94288       -3.92536
C         -7.62060       25.32563       -3.45324
O         -8.76455       25.69262       -3.67017
H         -5.75246       22.89013       -2.79391
H         -7.90762       23.24316       -3.41370
H         -7.37053       23.80522       -5.01658
N         -6.75623       26.13566       -2.77607
C         -7.14235       27.42771       -2.20803
C         -5.91232       28.25790       -1.84725
O         -4.79742       27.79117       -2.01126
C         -8.06242       27.19664       -0.98377
C         -7.41347       26.32526        0.06337
O         -6.27943       26.71853        0.67446
O         -7.91623       25.25412        0.36434
H         -5.79590       25.81025       -2.63286
H         -7.68108       28.01980       -2.97963
H         -8.99994       26.70569       -1.32219
H         -8.35381       28.16218       -0.52137
N         -6.05040       29.52111       -1.34939
C         -4.90207       30.35333       -1.02043
C         -4.98432       31.72997       -1.63915
O         -5.96761       32.06673       -2.27777
H         -6.99185       29.89586       -1.16955
H         -3.94834       29.88141       -1.33892
H         -4.86683       30.48642        0.08070
N         -3.96194       32.60023       -1.39731
C         -3.94519       34.01565       -1.79112
C         -2.81439       34.75588       -1.07870
O         -1.98598       34.13334       -0.43062
C         -3.79723       34.22877       -3.32576
C         -2.47842       33.67264       -3.87478
O         -4.86876       33.64521       -4.01350
H         -3.19670       32.22999       -0.81796
H         -4.89540       34.47366       -1.43696
H         -3.80395       35.32956       -3.51309
H         -5.10320       34.24934       -4.76593
H         -2.42015       32.57802       -3.70640
H         -2.40894       33.87598       -4.96423
H         -1.60964       34.16237       -3.38487
N         -2.73808       36.11540       -1.14534
C         -1.67086       36.86650       -0.49194
C         -2.17021       37.43053        0.82769
O         -1.34873       37.69496        1.69563
C         -1.10787       37.96580       -1.44565
C         -0.68680       37.34452       -2.80539
C          0.07016       38.71792       -0.79199
C         -0.23512       38.37671       -3.84248
H         -3.48116       36.63536       -1.63574
H         -0.84120       36.17125       -0.23461
H         -1.92345       38.69780       -1.64290
H         -1.55918       36.82178       -3.25218
H          0.12195       36.59778       -2.65256
H         -0.24003       39.21095        0.14969
H          0.90611       38.01806       -0.57816
H          0.43880       39.53647       -1.43938
H         -1.03655       39.12687       -4.01432
H          0.69373       38.89316       -3.52933
H         -0.02014       37.86359       -4.80319
N         -3.49804       37.63776        1.05846
C         -4.01889       38.18886        2.30131
C         -4.58393       39.56961        2.01097
O         -4.60114       39.97327        0.85399
C         -5.07164       37.21182        2.88874
C         -4.46617       35.82169        3.13106
O         -5.56951       37.70419        4.10470
H         -4.18637       37.44043        0.31748
H         -3.20191       38.32434        3.04371
H         -5.90402       37.11868        2.15103
H         -6.43355       37.24403        4.27167
H         -5.23951       35.13949        3.54347
H         -4.09372       35.37818        2.18329
H         -3.62576       35.88697        3.85454
N         -5.02751       40.37332        3.01739
C         -5.53312       41.71880        2.78379
C         -4.66102       42.73308        3.50424
O         -4.11721       43.60536        2.84084
C         -7.05212       41.80720        3.10697
C         -7.45130       41.54015        4.56145
O         -7.73954       40.88482        2.29955
H         -4.98868       40.03079        3.98709
H         -5.47160       41.97296        1.70135
H         -7.41011       42.83747        2.87159
H         -7.82339       41.29143        1.39747
H         -7.06079       42.32355        5.23854
H         -8.55779       41.57745        4.64993
H         -7.11350       40.53566        4.89217
N         -4.48329       42.68902        4.85535
C         -3.73010       43.68692        5.60046
C         -2.71028       43.02177        6.50482
O         -3.06109       42.10239        7.23272
C         -4.71731       44.53896        6.41746
C         -3.99604       45.66348        7.17848
C         -4.98765       46.61295        7.85374
C         -4.24004       47.70291        8.63337
N         -5.17510       48.63988        9.25288
H         -4.94180       41.94524        5.39863
H         -3.21432       44.39519        4.91447
H         -5.29263       43.90559        7.12819
H         -5.43384       44.99912        5.70058
H         -3.37652       46.25266        6.46610
H         -3.32817       45.21796        7.94757
H         -5.63888       46.04225        8.55072
H         -5.62411       47.08719        7.07397
H         -3.56621       48.26180        7.94576
H         -3.61718       47.22733        9.42383
H         -5.81457       48.13224        9.90631
H         -4.63460       49.35391        9.79257
H         -5.73505       49.12592        8.51510
N         -1.44401       43.51925        6.58631
C         -0.46032       43.00745        7.53117
C          0.01069       41.61036        7.14238
O         -0.17116       40.71424        7.95407
C          0.69717       44.01624        7.72743
C          1.66409       43.59109        8.84729
C          2.72366       44.62545        9.13019
O          2.76768       45.67751        8.51037
O          3.63375       44.38988       10.09377
H         -1.21017       44.35505        6.02861
H         -0.95343       42.95561        8.53032
H          0.23997       44.98803        8.02091
H          1.27282       44.18113        6.79690
H          2.16547       42.64115        8.56454
H          1.09087       43.42647        9.78534
N          0.62305       41.29550        5.96059
C          0.88922       42.19922        4.85896
H          1.98374       42.24850        4.68002
H          0.39540       41.81106        3.94409
H          0.51449       43.22061        5.01784
H          0.92132       40.31758        5.82015
Ca        -1.12029       24.34844       -3.95506
O         -2.64547       25.74598       -1.14560
H         -2.17748       26.52220       -1.54083
H         -3.35001       25.52483       -1.80383
O         -2.72712       22.66320       -0.80012
H         -2.63939       21.74876       -0.43077
H         -3.37747       23.11149       -0.20338
O         -2.01268       21.11264       -3.41812
H         -2.76393       20.50460       -3.20280
H         -1.70003       20.81533       -4.30891
O          0.44826       22.57213       -1.06582
H          0.04632       22.67282       -0.16649
H          1.39353       22.33658       -0.88909
O          0.81070       22.32306       -5.21047
H          0.88414       23.04609       -5.88306
H          0.34690       21.58892       -5.68598

Ca 1.0



