%chk=apoCaM-CA-Ng.loop3.water5.frame444.chk
%nprocshared=20
%mem=10GB
%nosave
#b3lyp/svp scf=(tight,noincore,xqc) Test 
#IOP(5/87=12) Density=Current Pop=(MK,readradii) iop(6/33=2) iop(6/42=6)

apoCaM-CA-Ng.loop3.water5.frame444 

   0  1 
C         83.08928       55.83807       89.85255
C         82.32340       54.55567       89.74255
O         81.10674       54.60361       89.64323
H         83.81223       55.92013       89.01541
H         82.40138       56.71124       89.82256
H         83.63757       55.85522       90.81804
N         82.98230       53.35750       89.76121
C         82.33051       52.04954       89.71670
C         81.54491       51.74463       90.99399
O         80.85543       50.73883       91.01928
C         81.45267       51.88702       88.44557
C         82.22329       52.04856       87.15940
O         81.64064       51.92849       86.09369
O         83.54549       52.30979       87.16043
H         84.01275       53.37102       89.81364
H         83.11280       51.26006       89.66134
H         80.61040       52.60617       88.44829
H         81.01011       50.86757       88.43898
N         81.64157       52.53825       92.10702
C         80.88268       52.29633       93.33539
C         79.92061       53.43473       93.61722
O         79.21511       53.36299       94.62074
C         81.82564       52.03151       94.52541
C         82.69635       53.22847       94.94188
C         83.59170       52.83752       96.12402
C         84.47805       54.00536       96.57106
N         85.35929       53.59640       97.66476
H         82.26718       53.35148       92.09709
H         80.25783       51.38463       93.22575
H         82.47697       51.16875       94.26611
H         81.20424       51.73474       95.40055
H         82.04620       54.08062       95.23938
H         83.33928       53.54637       94.09505
H         84.23997       51.98767       95.81734
H         82.95958       52.51286       96.98036
H         83.83839       54.85179       96.90751
H         85.09783       54.35058       95.71411
H         84.79382       53.28659       98.48836
H         85.97991       52.81478       97.35077
H         85.95581       54.40706       97.94717
N         79.78450       54.48888       92.76428
C         78.78905       55.53767       92.93246
C         77.39982       54.90582       92.95540
O         77.26175       53.74084       92.60759
C         78.97589       56.57314       91.78832
C         78.08623       57.77798       91.83128
O         78.62236       59.00314       91.98325
O         76.88816       57.66713       91.64736
H         80.38474       54.54163       91.93339
H         78.97833       56.02981       93.91197
H         78.84056       56.07602       90.80221
H         80.02676       56.93714       91.83813
N         76.32639       55.60306       93.41398
C         74.99964       55.02284       93.51704
C         74.52420       54.50045       92.18717
O         74.22122       53.31753       92.10404
H         76.45763       56.56874       93.74038
H         74.28893       55.78838       93.89097
H         75.02431       54.19003       94.25526
N         74.46300       55.31432       91.09399
C         74.04784       54.83295       89.78022
C         75.20581       54.89860       88.79371
O         75.05561       55.41180       87.69285
C         72.76667       55.57050       89.32473
C         72.91253       57.05739       89.08822
N         71.82860       57.78945       88.74656
O         73.99761       57.60585       89.19026
H         74.74188       56.29995       91.19927
H         73.78000       53.75620       89.84360
H         71.99428       55.41865       90.11027
H         72.39581       55.11047       88.38431
H         70.90215       57.34850       88.66156
H         71.91185       58.79946       88.56716
N         76.40288       54.34303       89.13629
C         77.54934       54.23296       88.24865
C         78.18802       55.53254       87.79507
O         79.16246       55.43287       87.06198
H         76.49376       53.90925       90.06640
H         77.24798       53.65363       87.34912
H         78.33849       53.65330       88.77488
N         77.71938       56.77223       88.12959
C         78.33055       57.98739       87.60082
C         77.34867       59.17624       87.76389
O         77.52140       59.76797       89.02210
C         79.69905       58.23553       88.29658
C         80.39328       59.51621       87.89085
C         80.87320       59.69458       86.58412
C         80.58410       60.54217       88.83617
C         81.53913       60.87543       86.23189
C         81.23958       61.72321       88.48008
C         81.72387       61.89263       87.17640
O         82.36355       63.02534       86.82094
H         76.87807       56.86308       88.71427
H         78.46709       57.83515       86.50713
H         80.39160       57.38793       88.11711
H         79.51107       58.26011       89.39031
H         80.74073       58.91720       85.84311
H         80.22303       60.43253       89.85153
H         81.91026       61.00194       85.22312
H         81.37295       62.50366       89.21945
H         82.50749       63.75232       87.44409
N         77.55485       60.17944       86.71322
C         76.52422       61.23185       86.70903
C         75.12301       60.71051       86.36709
O         74.18468       61.21155       86.96695
C         76.98678       62.43186       85.82472
C         78.38542       62.89934       86.31493
C         75.97682       63.59411       85.88588
C         78.97472       64.09361       85.56618
H         77.62109       59.74465       85.76506
H         76.45816       61.64896       87.73690
H         77.06839       62.10009       84.76547
H         79.09328       62.05951       86.18347
H         78.34474       63.15434       87.39701
H         76.28986       64.43392       85.23402
H         74.99472       63.27647       85.50159
H         75.85940       63.96391       86.92683
H         78.37730       65.01088       85.74214
H         79.99731       64.29220       85.95096
H         79.03521       63.88207       84.47885
N         74.87830       59.71432       85.45719
C         73.51383       59.24991       85.17907
C         72.65643       60.31295       84.49357
O         71.45397       60.11142       84.39467
C         73.51688       57.95349       84.35436
O         74.11260       58.16897       83.10497
H         75.66411       59.24892       84.98375
H         73.03983       59.00336       86.15641
H         72.47051       57.59807       84.21341
H         74.08364       57.17954       84.92100
H         74.23221       57.27040       82.70067
N         73.19670       61.47834       84.02728
C         72.43247       62.59794       83.49215
C         71.44976       63.10551       84.53514
O         70.27593       63.28416       84.23878
C         71.77094       62.24137       82.15195
H         74.21286       61.62115       84.08905
H         73.15120       63.42381       83.29168
H         71.26044       63.13350       81.72973
H         72.54448       61.90949       81.42730
H         71.02254       61.43081       82.26917
N         71.87829       63.30648       85.81422
C         71.01749       63.74819       86.90030
C         71.69130       64.84673       87.71121
O         72.86014       65.13575       87.49016
C         70.68784       62.54450       87.77955
H         72.84834       63.06589       86.04669
H         70.06379       64.14667       86.49077
H         70.01156       62.82913       88.61045
H         70.17984       61.76586       87.17024
H         71.62050       62.10988       88.18772
N         70.97626       65.54122       88.64661
C         71.48734       66.66335       89.43917
C         71.93284       67.86074       88.59138
O         72.35380       68.84359       89.18692
C         72.63648       66.24925       90.39990
C         72.24169       65.23178       91.48244
C         71.96215       63.87474       90.92425
O         72.82842       63.28938       90.29674
O         70.76855       63.28719       91.13066
H         69.98911       65.28038       88.79230
H         70.65567       67.03350       90.08002
H         72.95293       67.15843       90.95743
H         73.52357       65.88730       89.83797
H         71.36364       65.60709       92.05223
H         73.09082       65.12831       92.19304
N         71.87492       67.87848       87.22529
C         72.35145       68.98720       86.42331
H         73.16486       68.62841       85.75706
H         71.52030       69.37427       85.79938
H         72.75238       69.81982       87.03787
H         71.48783       67.08793       86.69852
Ca        75.59210       59.63579       90.18618
O         76.79719       61.13594       93.06157
H         76.38361       61.80215       93.66570
H         77.76421       61.34512       93.08953
O         72.98760       60.50918       90.10274
H         72.03151       60.75273       90.05423
H         73.36103       60.77252       89.22610
O         76.45069       62.48202       90.26028
H         76.07868       63.15740       89.63951
H         77.25092       62.91316       90.65161
O         74.50824       58.50342       93.50400
H         73.60413       58.81887       93.75330
H         74.92024       58.24273       94.36536
O         73.75779       61.27997       92.68076
H         73.35379       61.78528       93.42903
H         74.26263       61.95622       92.16361

Ca 1.0



