%chk=apoCaM-CA-Ng.loop1.water3.frame149.chk
%nprocshared=20
%mem=10GB
%nosave
#b3lyp/svp scf=(tight,noincore,xqc) Test 
#IOP(5/87=12) Density=Current Pop=(MK,readradii) iop(6/33=2) iop(6/42=6)

apoCaM-CA-Ng.loop1.water3.frame149 

   0  1 
C         75.83828       33.85247       69.71632
C         74.76507       33.29132       68.83118
O         74.18717       32.26618       69.16290
H         76.79631       33.89229       69.15521
H         75.56214       34.87922       70.03503
H         75.98086       33.22048       70.61848
N         74.46287       33.91981       67.66269
C         73.46793       33.43874       66.71122
C         74.11989       33.01563       65.39699
O         73.39292       32.70661       64.46720
C         72.37021       34.50739       66.51863
C         72.87833       35.80535       65.95311
O         73.38411       35.84221       64.84283
O         72.75282       36.94189       66.66432
H         74.98654       34.77578       67.42000
H         72.94815       32.53562       67.10248
H         71.90101       34.70287       67.50852
H         71.57628       34.11096       65.84811
N         75.47729       32.89835       65.27685
C         76.16940       32.39159       64.09541
C         76.77358       31.03740       64.43661
O         77.52246       30.98476       65.40335
C         77.32712       33.33524       63.69922
C         76.92017       34.66381       63.04391
C         76.34385       34.45348       61.62955
C         76.24187       35.75249       60.81457
N         75.29576       36.70615       61.38966
H         76.07043       33.09616       66.09518
H         75.49255       32.30060       63.24292
H         77.99564       32.81420       62.97684
H         77.93570       33.54724       64.60615
H         77.85699       35.25296       62.93514
H         76.22287       35.23108       63.69592
H         75.35210       33.95809       61.67822
H         77.03782       33.79360       61.06381
H         75.90931       35.49140       59.78496
H         77.24819       36.22203       60.73384
H         74.34538       36.27461       61.44948
H         75.61282       37.01506       62.33555
H         75.24835       37.54540       60.76741
N         76.57583       29.88813       63.71638
C         75.76228       29.68441       62.51665
C         76.14481       30.63446       61.37802
O         75.28443       31.37574       60.91884
C         74.25390       29.80085       62.81705
C         73.75105       29.05301       64.01207
O         73.22355       29.67955       64.91824
O         73.77462       27.71265       64.08660
H         77.08611       29.05181       64.04389
H         75.93569       28.64643       62.17051
H         73.70174       29.47516       61.91498
H         73.98923       30.85141       62.98517
N         77.39361       30.72894       60.85168
C         78.52067       29.87111       61.18311
C         79.81427       30.42661       60.60028
O         79.82879       31.57379       60.17423
H         77.51829       31.45502       60.12961
H         78.29244       28.86375       60.79338
H         78.67233       29.80367       62.27793
N         80.98399       29.73043       60.58012
C         81.15309       28.33645       60.98062
C         80.39964       27.37484       60.06196
O         79.82337       27.79879       59.06846
C         82.66413       27.96880       60.98457
C         83.31174       27.99807       59.61486
O         83.39241       29.14075       58.90613
O         83.79295       26.97799       59.14898
H         81.81080       30.25532       60.26195
H         80.77320       28.22521       62.01968
H         82.78885       26.94968       61.40766
H         83.21104       28.66437       61.65639
N         80.41343       26.03617       60.32502
C         79.83002       25.03642       59.44740
C         78.31743       25.00377       59.41311
O         77.80643       24.18140       58.66556
H         80.93131       25.69362       61.14683
H         80.15702       24.03059       59.78803
H         80.22575       25.18609       58.41812
N         77.52722       25.83073       60.16335
C         76.06729       25.79400       60.08613
C         75.56266       27.04767       59.40135
O         76.29088       28.02551       59.30179
C         75.42819       25.58560       61.47834
C         75.87879       24.26625       62.11225
O         74.02856       25.58023       61.35740
H         77.95799       26.52889       60.78447
H         75.74593       24.94949       59.43782
H         75.74642       26.42232       62.13744
H         73.65888       25.79116       62.25361
H         76.98102       24.24817       62.24257
H         75.40991       24.15262       63.11316
H         75.57180       23.40837       61.47689
N         74.36221       27.01239       58.75795
C         73.88541       28.08414       57.89005
C         72.48498       28.56315       58.24888
O         72.04531       29.52005       57.62525
C         73.98205       27.63556       56.39928
C         73.17293       26.33720       56.12875
C         75.46565       27.47299       56.00979
C         73.14267       25.92134       54.65857
H         73.81576       26.14020       58.80368
H         74.53226       28.98328       58.00288
H         73.56966       28.45414       55.76823
H         72.12253       26.49246       56.45316
H         73.59587       25.48745       56.70512
H         75.58091       27.26151       54.92874
H         76.01669       28.41738       56.20932
H         75.94547       26.65457       56.58719
H         72.70285       26.72918       54.03809
H         74.15744       25.67449       54.28616
H         72.52046       25.00760       54.55188
N         71.73482       27.99230       59.23975
C         70.43725       28.52341       59.65731
C         70.52946       29.00057       61.09382
O         71.46334       28.63243       61.78849
C         69.28870       27.51260       59.42488
C         69.47192       26.18197       60.16630
O         69.11264       27.27865       58.04941
H         72.10432       27.18513       59.75914
H         70.19136       29.42660       59.05623
H         68.34967       27.97692       59.79807
H         69.93819       26.85019       57.70335
H         70.37729       25.64713       59.80993
H         69.55736       26.35710       61.25613
H         68.59287       25.52906       59.98276
N         69.67180       29.95358       61.55093
C         69.89365       30.67508       62.80339
C         68.64448       30.72398       63.66204
O         67.60752       30.22316       63.24703
C         70.38570       32.11022       62.45178
C         69.35591       32.95839       61.69311
O         71.53941       32.02098       61.65437
H         68.92206       30.27755       60.92123
H         70.69480       30.19128       63.40390
H         70.61414       32.66493       63.39189
H         72.32028       32.18037       62.23955
H         69.77517       33.97055       61.51053
H         69.10897       32.51239       60.70842
H         68.42338       33.07327       62.27823
N         68.66404       31.40528       64.84772
C         67.45243       31.74600       65.57939
C         67.49121       31.33801       67.05043
O         66.47544       31.53205       67.70420
C         67.23654       33.26150       65.34742
C         65.88568       33.84035       65.79846
C         65.61480       35.21954       65.15562
C         66.62573       36.31274       65.54157
N         66.33021       37.56222       64.83735
H         69.54801       31.83109       65.16496
H         66.58127       31.22149       65.12942
H         67.27210       33.39864       64.24559
H         68.07653       33.83749       65.79187
H         65.83146       33.90102       66.90554
H         65.07731       33.16670       65.43988
H         64.59694       35.55519       65.45012
H         65.62264       35.09932       64.04904
H         67.65673       36.00068       65.27153
H         66.58357       36.48332       66.63943
H         66.41471       37.41824       63.80399
H         65.36511       37.89270       65.06686
H         67.01878       38.29352       65.12795
N         68.58607       30.76858       67.65503
C         68.56155       30.37869       69.06537
C         69.14293       31.47880       69.92535
O         70.29321       31.84729       69.72929
C         69.29845       29.05149       69.37420
C         68.81398       27.83939       68.56121
C         69.62560       27.66125       67.31252
O         69.11499       27.73581       66.20683
O         70.93098       27.34204       67.44611
H         69.46627       30.65270       67.13349
H         67.50761       30.20473       69.37790
H         69.07132       28.84201       70.44380
H         70.40547       29.14813       69.30067
H         67.72091       27.91139       68.37418
H         68.99522       26.91466       69.15123
N         68.39656       32.02812       70.92597
C         68.88499       33.05635       71.82172
H         69.92573       33.36352       71.58875
H         68.22777       33.94771       71.75146
H         68.85832       32.67390       72.86428
H         67.43478       31.69062       71.08257
Ca        72.42881       27.08109       65.78069
O         70.78145       25.82716       63.55223
H         69.96961       26.36300       63.73648
H         71.44676       26.49031       63.24207
O         73.17854       25.83930       68.82843
H         72.76349       24.99867       69.14675
H         72.78407       26.54326       69.40252
O         73.81729       28.85768       67.81540
H         74.71645       29.21631       68.02186
H         73.20067       29.37725       68.38994

Ca 1.0



