%chk=apoCaM-CA-Ng.loop1.water4.frame1448.chk
%nprocshared=20
%mem=10GB
%nosave
#b3lyp/svp scf=(tight,noincore,xqc) Test 
#IOP(5/87=12) Density=Current Pop=(MK,readradii) iop(6/33=2) iop(6/42=6)

apoCaM-CA-Ng.loop1.water4.frame1448 

   0  1 
C         36.67949       74.23821      122.49855
C         36.96342       75.64401      122.93189
O         37.59100       76.37920      122.18189
H         35.58369       74.08249      122.43506
H         37.13267       74.03559      121.50379
H         37.11328       73.52658      123.23314
N         36.57023       76.07207      124.16722
C         36.88015       77.40443      124.68005
C         37.99388       77.31529      125.70912
O         37.97173       78.00172      126.72148
C         35.59784       78.10117      125.18669
C         34.88940       77.31842      126.26806
O         35.49513       77.06125      127.44322
O         33.75317       76.91307      126.08207
H         36.09975       75.39900      124.79161
H         37.30484       78.03136      123.86597
H         34.90692       78.22198      124.32360
H         35.84215       79.11504      125.56966
N         39.03203       76.47014      125.47480
C         40.18815       76.33021      126.34246
C         41.05421       77.57658      126.29217
O         41.31317       78.11539      127.35867
C         40.97801       75.04675      126.00008
C         40.09008       73.81374      126.26328
C         40.78203       72.49642      125.91840
C         39.82585       71.32339      126.18687
N         40.43188       70.04920      125.80981
H         38.98715       75.87046      124.63988
H         39.84281       76.18618      127.39252
H         41.87548       74.98032      126.65393
H         41.31906       75.05557      124.94455
H         39.16482       73.87718      125.65256
H         39.79707       73.80115      127.33706
H         41.70264       72.37969      126.53088
H         41.06102       72.50536      124.84240
H         38.88997       71.46430      125.60000
H         39.55768       71.30077      127.26735
H         39.75254       69.27902      126.00723
H         40.65338       70.04965      124.78761
H         41.30341       69.88677      126.36381
N         41.53518       78.15315      125.14896
C         41.28012       77.74587      123.76822
C         40.44001       78.81722      123.07559
O         39.95917       79.72592      123.73687
C         42.61023       77.41103      123.06225
C         43.58889       78.53683      123.08470
O         43.29374       79.69453      122.47453
O         44.66589       78.39751      123.64139
H         42.09968       79.00968      125.26757
H         40.69190       76.82059      123.69902
H         42.43511       77.11178      122.00742
H         43.06221       76.53430      123.57518
N         40.14928       78.72521      121.75265
C         39.19731       79.58784      121.08028
C         39.51935       81.11179      121.03152
O         40.80263       81.32432      120.48889
H         40.54324       77.94950      121.20163
H         38.20528       79.45102      121.56736
H         39.09012       79.22174      120.03459
N         38.47693       81.66870      120.12834
C         38.37476       83.12022      119.85141
C         37.24409       83.32070      118.83150
O         36.17353       82.77311      119.06311
C         37.96371       83.92325      121.10272
C         38.96254       83.84686      122.20887
O         38.58802       83.37757      123.41317
O         40.10881       84.22251      122.03035
H         37.54358       81.35216      120.48698
H         39.33785       83.51249      119.46530
H         36.97943       83.56395      121.47812
H         37.85243       84.99276      120.81654
N         37.31156       84.11080      117.72125
C         38.42110       84.94005      117.29880
C         39.58728       84.13665      116.80412
O         39.39473       83.20825      116.03195
H         36.45732       84.18221      117.14430
H         38.70285       85.66082      118.09745
H         38.07646       85.53940      116.42769
N         40.85044       84.51017      117.13661
C         42.03052       83.80481      116.65802
C         42.11160       82.46462      117.34554
O         42.02021       82.43929      118.55662
C         43.32030       84.61244      116.94402
C         43.32154       85.94239      116.17713
O         44.43114       83.85508      116.53195
H         40.97352       85.34574      117.72935
H         41.98126       83.67883      115.55315
H         43.38663       84.81177      118.03791
H         45.23513       84.27409      116.93633
H         44.25977       86.49717      116.38821
H         43.26285       85.75327      115.08339
H         42.46808       86.58430      116.47538
N         42.35407       81.32862      116.62959
C         42.56685       79.98818      117.17975
C         43.68975       80.00101      118.20411
O         43.49066       80.51558      119.29675
C         41.28154       79.35023      117.78568
C         40.02424       79.50881      116.90020
C         41.52401       77.87330      118.15956
C         40.13565       78.90066      115.50471
H         42.46609       81.42535      115.60977
H         42.87221       79.34955      116.32100
H         41.03844       79.87388      118.71734
H         39.79710       80.59054      116.79184
H         39.15789       79.04686      117.42393
H         41.79115       77.27176      117.26637
H         42.35186       77.78211      118.89452
H         40.61609       77.43729      118.62762
H         40.31766       77.80882      115.55814
H         39.18137       79.06945      114.96303
H         40.94894       79.38838      114.93011
N         44.89024       79.42182      117.94537
C         45.96796       79.39943      118.92339
C         47.23155       80.08127      118.43652
O         48.17895       80.07219      119.19927
C         46.23938       77.95193      119.39849
C         46.68088       77.01435      118.27554
O         45.08138       77.42745      119.99193
H         45.03626       78.96886      117.02962
H         45.68453       79.96415      119.84163
H         47.05932       77.96311      120.15574
H         44.98454       77.88370      120.86730
H         46.88744       76.00961      118.70045
H         45.88271       76.90651      117.51303
H         47.60598       77.39122      117.79215
N         47.33447       80.70885      117.21664
C         48.56151       81.40803      116.82703
C         48.76285       82.56892      117.78988
O         48.11931       83.59356      117.62245
C         48.49288       81.88918      115.35065
C         49.81547       82.51929      114.89274
O         48.20420       80.79252      114.52207
H         46.53825       80.70214      116.56715
H         49.40053       80.68136      116.90624
H         47.67362       82.64277      115.26361
H         47.83721       81.16015      113.67478
H         49.72750       82.85177      113.83587
H         50.07519       83.40277      115.51148
H         50.63778       81.77498      114.95858
N         49.54511       82.40734      118.90089
C         49.65076       83.35618      120.00895
C         48.29557       83.58947      120.68533
O         47.33852       83.92134      120.00741
C         50.31352       84.68217      119.59293
C         51.59671       84.43169      118.78434
C         52.43490       85.70110      118.61147
C         53.59092       85.43960      117.63455
N         54.48790       86.59034      117.55086
H         50.07592       81.52909      118.99962
H         50.34358       82.90812      120.75896
H         50.55302       85.23214      120.53131
H         49.62800       85.31140      118.98688
H         51.29942       84.03719      117.78811
H         52.23335       83.67251      119.29085
H         52.83388       85.99570      119.60791
H         51.81168       86.53196      118.21581
H         53.16523       85.22682      116.62754
H         54.17570       84.55101      117.96068
H         54.95625       86.73961      118.47422
H         55.22068       86.39740      116.83007
H         53.95832       87.44937      117.27767
N         48.14927       83.49778      122.03577
C         46.87093       83.75559      122.71349
C         45.85743       82.56683      122.54241
O         44.55863       83.00308      122.91292
C         47.11493       84.09750      124.20522
C         47.93965       85.38920      124.36308
C         48.25005       85.66252      125.80595
O         47.85402       86.68645      126.33915
O         48.99457       84.78920      126.51158
H         48.99923       83.33540      122.59781
H         46.41022       84.66000      122.25551
H         47.64507       83.25372      124.69724
H         46.14126       84.24535      124.72136
H         47.36607       86.23890      123.93026
H         48.90611       85.31364      123.82269
N         46.21084       81.40774      123.38280
C         47.48141       80.75950      123.04732
H         48.34027       81.37510      123.37117
H         47.57290       79.81611      123.62766
H         47.54459       80.52423      121.96431
H         45.46528       80.69802      123.23857
Ca        42.64662       82.21402      121.71491
O         42.78629       85.00164      123.84374
H         42.66853       84.28897      124.52046
H         41.86690       85.30130      123.63553
O         42.65970       85.26521      120.68702
H         41.93508       85.93904      120.68622
H         43.49122       85.79451      120.78100
O         44.55336       83.01565      119.66217
H         45.22334       82.78656      118.97135
H         44.86108       83.86912      120.05352
O         41.15590       82.14028      124.15922
H         40.69289       82.76098      124.77399
H         41.61050       81.49368      124.75403

Ca 1.0



