%chk=apoCaM-CA-Ng.loop2.water4.frame1202.chk
%nprocshared=20
%mem=10GB
%nosave
#b3lyp/svp scf=(tight,noincore,xqc) Test 
#IOP(5/87=12) Density=Current Pop=(MK,readradii) iop(6/33=2) iop(6/42=6)

apoCaM-CA-Ng.loop2.water4.frame1202 

   -2  1 
C         18.00427      119.61789       99.86984
C         17.03705      118.60929      100.43490
O         15.85927      118.93525      100.46693
H         19.05328      119.29284       99.79828
H         17.68204      119.87120       98.83770
H         17.97017      120.53880      100.48758
N         17.37629      117.36394      100.88302
C         18.72163      116.79312      100.97568
C         18.97968      116.30162      102.39692
O         18.08749      116.37718      103.23134
C         18.92180      115.70372       99.89088
C         17.92863      114.58608       99.97678
O         18.33110      113.31982      100.14803
O         16.73293      114.81222       99.88651
H         16.59520      116.76993      101.20195
H         19.49439      117.55448      100.78767
H         19.94968      115.28765       99.96262
H         18.81942      116.17653       98.89097
N         20.21401      115.83701      102.75425
C         20.61010      115.49540      104.12019
C         19.90822      114.27724      104.71499
O         20.20246      113.97775      105.86482
C         20.47605      116.73070      105.03408
H         20.94990      115.79515      102.03372
H         21.69244      115.23893      104.10774
H         20.87381      116.51430      106.04837
H         21.06627      117.57280      104.61234
H         19.42412      117.06161      105.14864
N         18.99541      113.51840      104.03221
C         18.33774      112.35761      104.63700
C         18.44741      111.10903      103.75413
O         19.08859      111.14983      102.71287
C         16.91966      112.75801      105.10794
C         15.97822      113.14831      104.01307
O         15.58557      112.22143      103.12495
O         15.55078      114.29011      103.93942
H         18.72630      113.77556      103.07259
H         18.85538      112.07734      105.57968
H         17.04399      113.61819      105.80465
H         16.45601      111.93557      105.68973
N         17.89578      109.93372      104.17011
C         18.11077      108.63759      103.53900
C         17.64563      108.51845      102.10207
O         16.48551      108.77987      101.81982
H         17.34899      109.93115      105.04322
H         17.55250      107.87522      104.12547
H         19.18808      108.37773      103.61259
N         18.50132      108.01548      101.16035
C         18.13064      107.70206       99.77951
C         18.22392      106.19991       99.55543
O         18.63560      105.48144      100.45797
C         19.09116      108.41945       98.80425
C         19.02305      109.92201       98.86746
N         19.84976      110.66562       98.09786
O         18.22363      110.47665       99.60252
H         19.46147      107.77332      101.45117
H         17.08052      108.00424       99.57077
H         18.86380      108.12638       97.75754
H         20.13231      108.10106       99.03387
H         20.53282      110.21308       97.47266
H         19.81117      111.69503       98.13020
N         17.85068      105.64666       98.36239
C         17.94557      104.21750       98.10131
C         17.05163      103.40932       99.02205
O         16.30144      103.99439       99.79155
H         17.50324      106.25481       97.60582
H         19.00343      103.90872       98.24038
H         17.65453      104.01194       97.05009
N         17.07441      102.04767       99.04954
C         17.91423      101.20772       98.19817
C         17.49358      101.31360       96.74169
O         18.35444      101.51252       95.89500
C         17.90147       99.72782       98.66614
C         18.52557       99.56930      100.06870
O         16.61240       99.16442       98.60045
H         16.46693      101.59043       99.74593
H         18.97698      101.52725       98.28919
H         18.55430       99.14439       97.97966
H         16.13107       99.36890       99.44353
H         19.56690       99.95891      100.07069
H         17.94718      100.12184      100.83851
H         18.55671       98.49696      100.35402
N         16.17870      101.23928       96.38255
C         15.72115      101.34754       94.99495
C         14.22766      101.69562       94.96226
O         13.48214      101.07882       95.71223
C         16.05369      100.04462       94.19970
C         15.77923      100.25101       92.68782
C         15.29831       98.82295       94.76029
C         16.21370       99.07936       91.80750
H         15.48101      101.16091       97.13838
H         16.29051      102.17957       94.54538
H         17.14223       99.84989       94.31209
H         16.35821      101.13495       92.34433
H         14.70000      100.44529       92.51400
H         15.62521       97.88898       94.26180
H         15.50521       98.70242       95.84390
H         14.20334       98.92588       94.60988
H         17.29582       98.87304       91.94797
H         15.62702       98.16608       92.03038
H         16.03934       99.33917       90.74173
N         13.67092      102.66251       94.16939
C         14.32839      103.42588       93.11050
C         13.65969      103.17054       91.75594
O         14.10237      103.77496       90.78581
C         14.32710      104.92471       93.46600
C         15.11071      105.20014       94.71870
O         14.50504      105.75552       95.78524
O         16.30228      104.93933       94.76981
H         12.66528      102.85039       94.29963
H         15.38092      103.13443       92.96870
H         13.29113      105.28032       93.60657
H         14.78949      105.50973       92.64047
N         12.65599      102.25015       91.58092
C         12.15250      101.87656       90.26104
C         10.66391      101.51017       90.29822
O         10.29836      100.69276       91.13567
C         12.92876      100.64199       89.76597
C         12.63114      100.40226       88.30676
C         11.64801       99.48225       87.90807
C         13.31507      101.14722       87.33009
C         11.35357       99.31499       86.55066
C         13.02618      100.96838       85.97558
C         12.04383      100.05511       85.58574
H         12.35303      101.67382       92.37934
H         12.36472      102.69018       89.53901
H         12.67160       99.75622       90.38837
H         14.02422      100.79887       89.87397
H         11.09668       98.91349       88.64617
H         14.07072      101.86723       87.62063
H         10.58615       98.61574       86.24607
H         13.55976      101.54342       85.22974
H         11.81539       99.92473       84.53608
N          9.75281      101.96797       89.38310
C         10.04213      102.88632       88.30098
C         10.27717      104.26783       88.86790
O         11.28662      104.86695       88.51981
C          8.84086      102.71572       87.35747
C          7.69394      102.39188       88.28482
C          8.37449      101.50518       89.33382
H         10.92657      102.58475       87.70028
H          8.67763      103.53457       86.62471
H          9.01623      101.77831       86.77769
H          7.36058      103.34164       88.73662
H          6.79841      101.94034       87.80745
H          7.84423      101.60477       90.30570
H          8.38603      100.44071       89.01158
N          9.42729      104.82325       89.77900
C          9.66267      106.11466       90.39266
C          8.62067      107.08053       89.85920
O          7.45333      106.87936       90.16673
C          9.58451      106.00334       91.93123
C         10.58004      104.97570       92.48357
C         10.52511      104.92593       93.98456
O         10.82191      106.02176       94.70944
O         10.22297      103.89003       94.55541
H          8.58725      104.31731       90.08182
H         10.68425      106.45021       90.17057
H          8.56047      105.69647       92.24155
H          9.80033      107.00294       92.36887
H         11.60262      105.24963       92.15918
H         10.34402      103.96840       92.07605
N          8.89559      108.12626       89.02210
C         10.18815      108.49099       88.46737
H         11.03273      107.85628       88.77088
H         10.13290      108.43137       87.36024
H         10.42930      109.53346       88.75707
H          8.10150      108.70811       88.71420
Ca        16.75107      112.19710      101.24005
O         13.78468      110.22234      102.34413
H         12.91325      110.66378      102.18472
H         13.92188      110.28975      103.32240
O         13.80876      113.19850      100.15993
H         12.94993      112.71557      100.25796
H         13.60551      114.12540      100.44246
O         16.25201      112.47862       97.66699
H         17.18435      112.47895       97.33335
H         15.69702      112.37468       96.85359
O         14.47554      110.06971       99.32065
H         14.43298      109.76950       98.37834
H         13.53343      110.25537       99.56227

Ca 1.0



