%chk=apoCaM-CA-Ng.loop4.water5.frame879.chk
%nprocshared=20
%mem=10GB
%nosave
#b3lyp/svp scf=(tight,noincore,xqc) Test 
#IOP(5/87=12) Density=Current Pop=(MK,readradii) iop(6/33=2) iop(6/42=6)

apoCaM-CA-Ng.loop4.water5.frame879 

   -3  1 
C         26.71301      115.44832       13.00628
C         26.12905      116.76572       12.58428
O         26.06508      117.03151       11.39361
H         27.60264      115.62362       13.64795
H         25.95925      114.87030       13.58019
H         27.02704      114.85125       12.12297
N         25.69849      117.64955       13.53139
C         25.14771      118.97825       13.26939
C         23.80781      118.91030       12.54315
O         23.72888      118.36580       11.45432
C         26.16711      119.87056       12.52527
C         25.75485      121.32146       12.43995
O         24.60311      121.76160       12.98445
O         26.49050      122.11980       11.88327
H         25.79529      117.37345       14.52127
H         24.98586      119.45597       14.26228
H         26.33418      119.49141       11.49628
H         27.13347      119.83512       13.07416
N         22.70793      119.48270       13.10682
C         21.37776      119.52449       12.50514
C         20.98363      120.99069       12.31486
O         21.07147      121.73497       13.28171
C         20.38567      118.78580       13.45248
C         20.74198      117.28026       13.60928
C         18.91503      118.95602       13.02620
C         20.60692      116.44038       12.33029
H         22.81372      119.93204       14.02973
H         21.36092      119.01252       11.52836
H         20.47322      119.24905       14.46126
H         20.07382      116.83552       14.37811
H         21.78364      117.18294       13.98348
H         18.73115      118.55212       12.01156
H         18.24980      118.43567       13.74766
H         18.62745      120.02822       13.02925
H         20.87442      115.38664       12.55367
H         19.56347      116.44658       11.95437
H         21.28608      116.79545       11.53000
N         20.49226      121.50548       11.14244
C         20.20744      120.72562        9.93705
C         21.45997      120.26186        9.21013
O         21.33234      119.43440        8.31747
C         19.32157      121.52545        8.95883
C         18.02392      121.94179        9.59754
O         17.71264      123.24780        9.70252
O         17.24681      121.10063       10.02115
H         20.21783      122.50092       11.15040
H         19.62580      119.82967       10.24226
H         19.08188      120.90164        8.06993
H         19.87152      122.42848        8.61416
N         22.70070      120.72293        9.53615
C         23.91330      120.18886        8.94384
C         24.06963      120.42198        7.46050
O         23.26442      121.09057        6.82756
H         22.81045      121.42994       10.27696
H         23.93662      119.09436        9.11779
H         24.79510      120.64128        9.44772
N         25.15012      119.85868        6.85586
C         25.50189      120.00425        5.45002
C         24.39540      119.56718        4.49706
O         23.96710      120.39785        3.70644
C         26.87413      119.32119        5.16162
C         27.09401      117.93131        5.73249
O         28.04102      117.74884        6.67271
O         26.45832      116.96666        5.35226
H         25.77921      119.30804        7.45945
H         25.66427      121.08705        5.24288
H         27.64142      119.95951        5.65053
H         27.08716      119.33148        4.07062
N         23.90912      118.29723        4.47134
C         22.94308      117.83517        3.48684
C         23.56070      116.84479        2.51772
O         22.82225      116.32137        1.69687
H         24.25099      117.60775        5.14917
H         22.53615      118.67102        2.87647
H         22.08947      117.36793        4.02286
N         24.90157      116.55282        2.52826
C         25.56805      115.64755        1.59688
C         25.09257      114.20316        1.70452
O         25.53085      113.41275        0.88012
C         25.47241      116.19050        0.14316
C         26.26635      117.49937       -0.06977
C         27.77408      117.31744       -0.06378
N         28.58307      118.37915       -0.28552
O         28.27346      116.21475        0.10925
H         25.51241      117.02099        3.20249
H         26.64697      115.60088        1.85425
H         24.41090      116.35982       -0.12373
H         25.86687      115.44983       -0.58586
H         25.96865      118.25359        0.69066
H         26.00281      117.89919       -1.07201
H         28.18979      119.31712       -0.44862
H         29.60767      118.26085       -0.30468
N         24.27219      113.75395        2.70696
C         23.83545      112.35796        2.78509
C         24.38974      111.61024        3.99085
O         24.17426      110.40445        4.02397
C         22.28345      112.23905        2.73452
C         21.58812      112.92778        3.92239
C         21.72686      112.77707        1.41063
H         23.95944      114.40302        3.44065
H         24.22740      111.79421        1.91093
H         22.02200      111.15761        2.77542
H         21.95356      112.51334        4.88546
H         21.75856      114.02420        3.91391
H         20.49221      112.75101        3.87261
H         22.18856      112.23848        0.55585
H         20.62840      112.61482        1.36510
H         21.92953      113.86169        1.30312
N         25.07772      112.20233        5.01797
C         25.55408      111.41478        6.15880
C         26.96502      111.78307        6.59334
O         27.56077      112.70509        6.05138
C         24.54663      111.48737        7.33914
C         24.67965      112.69373        8.24492
N         24.48897      113.95439        7.79919
O         24.96431      112.51528        9.42088
H         25.20230      113.22429        5.02648
H         25.58162      110.34242        5.86605
H         24.71725      110.59276        7.97845
H         23.50888      111.39215        6.95390
H         24.23501      114.14428        6.82268
H         24.59329      114.74959        8.44776
N         27.51891      111.12317        7.64652
C         28.74286      111.52510        8.32117
C         29.48921      110.29755        8.79291
O         28.87821      109.43664        9.40995
C         28.34475      112.42077        9.51242
C         29.49647      112.79984       10.41705
C         29.40448      112.54632       11.79645
C         30.65648      113.41318        9.91150
C         30.44738      112.90186       12.65345
C         31.70790      113.75085       10.77093
C         31.60635      113.49929       12.14323
O         32.62354      113.83696       12.96111
H         26.94817      110.39941        8.10901
H         29.39482      112.13198        7.65512
H         27.56146      111.90537       10.11103
H         27.89362      113.35061        9.10229
H         28.51926      112.08308       12.21450
H         30.75549      113.62228        8.85462
H         30.35318      112.71038       13.71478
H         32.60159      114.21225       10.37033
H         32.58813      113.68056       13.91594
N         30.83166      110.18409        8.59068
C         31.61728      109.05452        9.06281
C         32.54769      109.54529       10.16410
O         33.57875      110.11658        9.83592
C         32.37941      108.45318        7.86142
C         33.24317      107.23693        8.22054
C         33.93992      106.71097        6.99622
O         33.70634      105.45437        6.57279
O         34.72292      107.41816        6.38084
H         31.33119      110.95556        8.12089
H         30.95663      108.26472        9.45785
H         33.02742      109.23967        7.41257
H         31.63486      108.14545        7.09401
H         32.59817      106.44132        8.65121
H         34.01335      107.51531        8.97111
N         32.24494      109.47017       11.49767
C         31.00571      108.93632       12.06307
C         30.84894      107.44200       11.86024
O         31.75255      106.68318       12.18177
C         30.84414      109.27308       13.56133
C         31.93281      108.76883       14.52340
C         31.50978      109.10829       15.92217
O         30.50350      108.60200       16.39419
O         32.18857      110.01683       16.64260
H         32.92334      109.89803       12.14529
H         30.15178      109.46294       11.58857
H         29.85824      108.86341       13.87977
H         30.79244      110.37512       13.66984
H         32.89665      109.26993       14.29517
H         32.07746      107.67174       14.45768
N         29.67582      106.94946       11.37309
C         29.43305      105.53535       11.20723
H         28.40126      105.37506       10.82590
H         30.15499      105.10848       10.48125
H         29.52912      105.01869       12.18595
H         28.90917      107.59701       11.13968
Ca        31.22113      110.68535       18.56817
O         29.55532      108.54490       19.90360
H         29.02254      108.47239       20.73485
H         29.58637      107.62282       19.54436
O         32.94075      113.05881       18.58694
H         33.48306      113.42910       19.32746
H         33.57483      112.50503       18.06543
O         31.39115      111.02271       21.48713
H         31.78684      110.21684       21.90432
H         32.07352      111.72944       21.61020
O         28.74598      112.01371       19.90062
H         28.24521      111.76456       19.08346
H         28.09560      112.52271       20.44650
O         33.85434      109.44123       19.10302
H         34.45637      110.22643       19.06944
H         33.69056      109.29330       20.06804

Ca 1.0



