%chk=apoCaM-CA-Ng.loop4.water3.frame229.chk
%nprocshared=20
%mem=10GB
%nosave
#b3lyp/svp scf=(tight,noincore,xqc) Test 
#IOP(5/87=12) Density=Current Pop=(MK,readradii) iop(6/33=2) iop(6/42=6)

apoCaM-CA-Ng.loop4.water3.frame229 

   -3  1 
C         25.55367       47.47358       98.70633
C         25.52432       48.91021       99.13519
O         26.27284       49.27447      100.02177
H         26.31343       46.90369       99.28408
H         24.55745       47.01426       98.87178
H         25.81207       47.41302       97.62803
N         24.69305       49.78903       98.51149
C         24.58665       51.21844       98.79422
C         25.92269       51.93764       98.65816
O         26.66561       52.01936       99.61971
C         23.73355       51.55182      100.05479
C         24.27863       51.11133      101.38564
O         25.32016       51.75658      101.94187
O         23.72473       50.21805      102.00767
H         24.11406       49.42546       97.73875
H         23.94731       51.62910       97.98097
H         22.74873       51.05648       99.90563
H         23.54490       52.64652      100.10904
N         26.29037       52.44656       97.44283
C         27.45844       53.27983       97.13534
C         27.21142       54.70444       97.62473
O         27.10120       55.59522       96.79341
C         28.83342       52.69634       97.59246
C         30.03245       53.54014       97.05817
C         29.00196       51.22075       97.19011
C         30.21170       53.56369       95.53474
H         25.66689       52.24849       96.64526
H         27.48857       53.33523       96.02629
H         28.88325       52.73392       98.70205
H         30.97081       53.14392       97.50112
H         29.92986       54.59250       97.38253
H         28.22062       50.59255       97.66419
H         28.93023       51.08925       96.09135
H         29.98913       50.84292       97.53643
H         31.09313       54.19093       95.28318
H         30.39803       52.54721       95.13412
H         29.33417       54.01015       95.02628
N         27.04633       54.98801       98.94759
C         26.65237       56.29756       99.44194
C         27.74915       57.34704       99.27693
O         27.43744       58.39961       98.73848
C         26.16466       56.20176      100.90892
C         25.56259       57.49564      101.38524
O         26.08101       58.13004      102.45338
O         24.59088       57.96838      100.81610
H         27.13025       54.23642       99.63659
H         25.74885       56.61443       98.87011
H         26.97787       55.90543      101.59433
H         25.37538       55.42059      100.97599
N         29.03766       57.19759       99.71621
C         29.59931       55.95158      100.22083
C         31.06533       56.09238      100.60022
O         31.79750       56.66537       99.80570
H         29.66608       58.01031       99.61443
H         29.55060       55.20616       99.41448
H         29.00244       55.56328      101.03673
N         31.63208       55.55741      101.73106
C         30.98365       54.71356      102.73517
C         30.40464       53.47432      102.04272
O         29.19085       53.33972      101.98152
C         30.00089       55.52379      103.62177
C         29.56325       54.77795      104.85912
O         28.74784       55.38586      105.74053
O         29.95731       53.64609      105.09413
H         32.64715       55.70111      101.85407
H         31.75818       54.39667      103.46341
H         29.09819       55.85473      103.08410
H         30.53033       56.43454      103.97526
N         31.19674       52.54509      101.42244
C         32.63731       52.43695      101.59900
C         33.43518       52.86696      100.40368
O         32.88007       53.25603       99.38570
H         30.74504       51.81377      100.85411
H         32.88558       51.38615      101.86296
H         32.99058       53.05633      102.43828
N         34.79373       52.88761      100.51625
C         35.67019       53.42691       99.48637
C         35.90675       52.43195       98.35980
O         36.47089       52.83199       97.35146
C         37.01411       53.87844      100.10091
C         36.80959       54.93521      101.20583
C         38.12214       55.38377      101.79173
N         38.48926       56.68591      101.74940
O         38.85575       54.56544      102.32646
H         35.20519       52.59603      101.41667
H         35.18589       54.33660       99.06283
H         37.64999       54.32098       99.30260
H         37.54144       52.99435      100.52344
H         36.19858       54.52117      102.03485
H         36.26255       55.80515      100.78187
H         37.88056       57.39451      101.31445
H         39.38391       56.99007      102.16099
N         35.50861       51.12672       98.45472
C         35.63466       50.16527       97.36129
C         36.51983       48.97636       97.71102
O         36.64001       48.10857       96.85416
C         34.22669       49.65358       96.93256
C         33.33091       50.80546       96.45951
C         33.51983       48.85696       98.04353
H         35.07573       50.79656       99.32687
H         36.09494       50.64732       96.47035
H         34.35977       48.96804       96.06547
H         33.13369       51.52067       97.28450
H         33.81567       51.34707       95.62001
H         32.35812       50.40733       96.09944
H         33.31639       49.49127       98.92849
H         32.55294       48.46197       97.66810
H         34.13536       47.98940       98.36349
N         37.16919       48.84211       98.90899
C         37.95608       47.64976       99.22667
C         37.50508       46.94384      100.50674
O         37.94565       45.81973      100.70139
C         39.45564       48.00097       99.30441
C         39.96450       48.62014       98.02315
N         39.92634       47.93781       96.85383
O         40.42382       49.75224       98.04499
H         37.13328       49.60799       99.59681
H         37.83352       46.89414       98.42106
H         40.05030       47.08350       99.50815
H         39.61810       48.71396      100.14129
H         39.55142       46.97958       96.80974
H         40.27604       48.36992       95.98540
N         36.69562       47.52603      101.44964
C         36.31223       46.84406      102.68952
C         34.82192       46.93315      102.98842
O         34.17545       47.90369      102.62526
C         37.06416       47.42276      103.90919
C         38.46988       46.88639      104.03390
C         38.75593       45.96722      105.06139
C         39.49382       47.26372      103.15290
C         40.03157       45.42475      105.19576
C         40.77765       46.72114      103.29203
C         41.04875       45.79754      104.30976
O         42.28506       45.27386      104.42835
H         36.39208       48.50136      101.33160
H         36.55713       45.75973      102.63912
H         36.52980       47.07583      104.81423
H         37.02825       48.53399      103.93612
H         37.98508       45.65422      105.75573
H         39.30168       47.97660      102.36539
H         40.22326       44.71138      105.98758
H         41.56194       47.01586      102.60686
H         42.50238       44.62721      105.11578
N         34.26522       45.97326      103.79578
C         32.92136       45.98507      104.37667
C         31.77784       45.92638      103.37473
O         30.64115       45.91971      103.82855
C         32.73558       47.18440      105.33903
C         33.72977       47.15151      106.50964
C         33.46197       48.26971      107.47537
O         34.32033       49.10774      107.70056
O         32.27744       48.34245      108.11289
H         34.86615       45.18578      104.08422
H         32.81443       45.06545      104.99654
H         31.71288       47.13107      105.77406
H         32.82354       48.14589      104.78964
H         34.76305       47.23780      106.12620
H         33.63872       46.18843      107.05706
N         31.96536       45.86238      102.02544
C         30.85567       45.87498      101.07692
C         30.79136       44.60518      100.24303
O         29.87906       44.49846       99.43340
C         31.00983       47.09508      100.14969
C         31.07613       48.44948      100.87633
C         29.79230       48.83498      101.54361
O         29.12431       49.90250      101.08370
O         29.34832       48.20281      102.48771
H         32.91770       45.82906      101.63838
H         29.88023       45.94314      101.60241
H         30.17659       47.12801       99.41300
H         31.95950       46.96950       99.58722
H         31.29419       49.22078      100.10843
H         31.89889       48.47259      101.61760
N         31.70031       43.59685      100.36927
C         31.62428       42.40253       99.55641
H         31.69391       42.67259       98.48076
H         32.46287       41.71905       99.80606
H         30.66451       41.87578       99.74431
H         32.47267       43.66287      101.04644
Ca        27.26383       50.66322      102.05751
O         29.85081       50.82606      103.96814
H         30.24738       50.22661      104.64833
H         29.07504       51.23934      104.42235
O         26.84374       53.16747      104.12629
H         25.89587       53.31282      104.37084
H         27.28118       52.91888      104.97855
O         26.46389       49.64769      104.57722
H         25.92953       49.79836      105.39599
H         26.68498       48.68276      104.59028

Ca 1.0



