%chk=apoCaM-CA-Ng.loop4.water3.frame198.chk
%nprocshared=20
%mem=10GB
%nosave
#b3lyp/svp scf=(tight,noincore,xqc) Test 
#IOP(5/87=12) Density=Current Pop=(MK,readradii) iop(6/33=2) iop(6/42=6)

apoCaM-CA-Ng.loop4.water3.frame198 

   -3  1 
C          3.25841       37.87141       11.27929
C          2.53393       38.83289       10.38789
O          2.46289       38.59337        9.19276
H          4.09391       38.39090       11.79171
H          2.55248       37.47156       12.03767
H          3.66607       37.02037       10.69214
N          1.93440       39.93528       10.92208
C          1.14823       40.90115       10.16250
C         -0.01154       40.19784        9.47907
O         -0.11320       40.20668        8.26456
C          2.03233       41.84578        9.30048
C          2.84951       41.23927        8.19873
O          2.30752       40.76363        7.21838
O          4.19428       41.29577        8.25037
H          1.99149       40.07220       11.94292
H          0.68096       41.60282       10.88998
H          2.73544       42.34926        9.99946
H          1.39155       42.63643        8.85207
N         -0.94375       39.57962       10.26447
C         -2.14364       38.86966        9.82193
C         -3.05271       39.80252        9.03373
O         -3.95499       40.37045        9.63395
C         -1.81748       37.51076        9.13480
C         -3.08942       36.72489        8.70968
C         -0.92926       36.64978       10.05440
C         -4.03740       36.34550        9.85460
H         -0.80899       39.64100       11.28622
H         -2.68953       38.61793       10.75901
H         -1.23161       37.70015        8.21081
H         -2.77469       35.78842        8.19810
H         -3.66207       37.32543        7.97164
H          0.03615       37.15877       10.25522
H         -1.42121       36.45296       11.02912
H         -0.70212       35.67879        9.57593
H         -4.90145       35.78270        9.44394
H         -3.53289       35.69559       10.59821
H         -4.43655       37.24665       10.36240
N         -2.86120       40.04061        7.70328
C         -3.56108       41.09306        6.97963
C         -4.86390       40.59165        6.34726
O         -5.90114       41.07793        6.77616
C         -2.56767       41.81365        6.04333
C         -3.20476       42.94418        5.29104
O         -3.76723       43.96970        5.95820
O         -3.20034       42.94671        4.07054
H         -2.12249       39.52742        7.20498
H         -3.85938       41.87691        7.71488
H         -2.09867       41.10470        5.33671
H         -1.73818       42.22597        6.65937
N         -4.96496       39.64592        5.36486
C         -3.83725       38.99338        4.72355
C         -4.24221       37.90975        3.72849
O         -5.42708       37.63864        3.59428
H         -5.92016       39.39615        5.06693
H         -3.23232       38.50891        5.50969
H         -3.26519       39.75975        4.18941
N         -3.33214       37.17668        3.01162
C         -1.88570       37.37207        2.96497
C         -1.26279       37.36389        4.35852
O         -0.72090       38.38105        4.76908
C         -1.54903       38.62157        2.11319
C         -0.07448       38.74121        1.83907
O          0.57920       37.75039        1.20185
O          0.53151       39.74705        2.16940
H         -3.70101       36.40708        2.43003
H         -1.44608       36.52955        2.38726
H         -1.90798       39.55353        2.58311
H         -2.05769       38.52391        1.12968
N         -1.26230       36.26111        5.16220
C         -1.73744       34.95075        4.76514
C         -3.21891       34.76895        4.94539
O         -3.89814       35.63777        5.47226
H         -0.78962       36.32755        6.07158
H         -1.26153       34.18629        5.41671
H         -1.41727       34.72468        3.72802
N         -3.76947       33.59068        4.55454
C         -5.16572       33.22855        4.74718
C         -5.29322       32.08836        5.75547
O         -6.41589       31.72867        6.08212
C         -5.85735       33.00644        3.37727
C         -5.14046       32.08483        2.37210
C         -5.10179       30.64304        2.78046
N         -6.24630       29.93185        2.88764
O         -4.02632       30.09794        2.97156
H         -3.14398       32.88908        4.12996
H         -5.71983       34.06831        5.22376
H         -5.89111       34.00386        2.88533
H         -6.91120       32.68616        3.52762
H         -4.11318       32.46388        2.18980
H         -5.67019       32.14029        1.39679
H         -7.15919       30.37001        2.69895
H         -6.21893       28.93278        3.12850
N         -4.19331       31.56730        6.38499
C         -4.25308       30.69444        7.55296
C         -3.56223       29.35303        7.33507
O         -3.53434       28.57771        8.28110
C         -3.64833       31.43711        8.78894
C         -4.49631       32.66347        9.15971
C         -2.17979       31.86480        8.59191
H         -3.25411       31.86627        6.09842
H         -5.30853       30.45056        7.80829
H         -3.68582       30.74619        9.66037
H         -5.54261       32.35548        9.37115
H         -4.09189       33.14722       10.07453
H         -4.50192       33.41072        8.33789
H         -1.78798       32.31860        9.52709
H         -1.54458       30.99026        8.34106
H         -2.07675       32.62811        7.79244
N         -3.03297       28.97644        6.13142
C         -2.44032       27.65539        5.91382
C         -1.02149       27.70399        5.35066
O         -0.43528       26.63641        5.22471
C         -3.32885       26.86566        4.92634
C         -4.74172       26.68704        5.42595
N         -4.99907       25.98777        6.55461
O         -5.66878       27.16629        4.79295
H         -3.11720       29.60830        5.32510
H         -2.38476       27.09163        6.86978
H         -2.90125       25.85652        4.74158
H         -3.35011       27.41113        3.95603
H         -4.23601       25.56011        7.09750
H         -5.96963       25.86514        6.88043
N         -0.43269       28.85504        4.90585
C          0.81471       28.84985        4.14272
C          1.74392       29.98277        4.53252
O          1.32338       31.12887        4.47024
C          0.47106       29.02215        2.64825
C         -0.22948       27.81462        2.07912
C          0.45000       26.58679        1.99306
C         -1.54763       27.90331        1.60711
C         -0.17771       25.46854        1.44125
C         -2.17758       26.78044        1.06116
C         -1.49510       25.56189        0.97202
O         -2.11030       24.49200        0.42974
H         -0.95259       29.74233        4.95090
H          1.36087       27.88879        4.25591
H          1.39698       29.16202        2.05147
H         -0.14835       29.93927        2.52693
H          1.47178       26.49787        2.34114
H         -2.08716       28.83897        1.66117
H          0.36344       24.53297        1.37452
H         -3.19520       26.85982        0.70096
H         -1.66616       23.63688        0.33689
N          3.06738       29.72393        4.78485
C          4.13318       30.72598        4.89054
C          4.22505       31.44138        6.22960
O          5.34289       31.62024        6.69677
C          4.14834       31.72060        3.70437
C          4.28525       30.99299        2.35387
C          4.31571       31.93254        1.17869
O          4.42787       31.47813        0.05142
O          4.21724       33.26637        1.34587
H          3.37786       28.74083        4.74926
H          5.10022       30.17608        4.80741
H          5.02107       32.40103        3.82107
H          3.23689       32.35226        3.70713
H          3.43312       30.29897        2.21316
H          5.22580       30.40013        2.35412
N          3.13600       31.91275        6.89891
C          3.25193       32.69795        8.12626
C          3.87342       31.92330        9.28278
O          4.15753       32.54346       10.29938
C          1.87169       33.22756        8.58484
C          1.08605       34.03514        7.53723
C          1.78853       35.27734        7.08166
O          2.81777       35.20901        6.42980
O          1.23950       36.47748        7.32544
H          2.20655       31.74565        6.51172
H          3.91591       33.56238        7.90824
H          2.00736       33.86884        9.48448
H          1.23963       32.35948        8.87503
H          0.11813       34.31845        7.99505
H          0.83885       33.42411        6.64697
N          4.09940       30.57975        9.22842
C          4.68735       29.86192       10.33766
H          5.70370       30.25746       10.54878
H          4.05025       29.97324       11.24083
H          4.76855       28.78259       10.08969
H          3.83870       30.03487        8.39525
Ca         2.06581       38.24980        6.23492
O          5.03080       38.45915        5.93660
H          5.90014       38.61576        5.49023
H          4.97845       39.16074        6.63313
O          2.73600       36.77069        3.63699
H          1.83865       37.18794        3.66255
H          2.55548       35.79747        3.64595
O          2.97713       40.39370        4.07929
H          2.02900       40.19554        4.28425
H          3.26536       39.64974        3.49293

Ca 1.0



