%chk=apoCaM-CA-Ng.loop2.water3.frame16.chk
%nprocshared=20
%mem=10GB
%nosave
#b3lyp/svp scf=(tight,noincore,xqc) Test 
#IOP(5/87=12) Density=Current Pop=(MK,readradii) iop(6/33=2) iop(6/42=6)

apoCaM-CA-Ng.loop2.water3.frame16 

   -2  1 
C         57.88408       38.63037       52.73629
C         56.47310       39.05629       53.02200
O         55.72464       38.26966       53.58388
H         58.40564       38.38328       53.68415
H         57.87012       37.73174       52.08459
H         58.45079       39.42692       52.21064
N         56.03165       40.29531       52.65856
C         54.64951       40.72832       52.85531
C         53.69241       39.89762       52.00350
O         52.52204       39.81535       52.34674
C         54.52735       42.23752       52.54301
C         53.16371       42.82055       52.80702
O         53.01173       43.77102       53.74860
O         52.19888       42.47588       52.14408
H         56.70342       40.94826       52.22571
H         54.40393       40.57914       53.93175
H         54.80453       42.43176       51.48416
H         55.25706       42.77078       53.19179
N         54.13139       39.23097       50.89381
C         53.31016       38.35383       50.06807
C         52.77661       37.19755       50.89686
O         51.59238       36.89394       50.84214
C         52.21057       39.14667       49.34313
H         55.11975       39.31638       50.61568
H         53.97350       37.91702       49.28895
H         52.66962       39.95917       48.74045
H         51.64237       38.48193       48.65896
H         51.49762       39.60276       50.06116
N         53.62437       36.54292       51.74360
C         53.24784       35.45907       52.64338
C         52.01786       35.85350       53.46432
O         51.06424       35.08974       53.53730
C         53.08715       34.15542       51.82426
C         52.84657       32.91939       52.65450
O         53.79212       32.36484       53.45069
O         51.76705       32.35669       52.56409
H         54.59729       36.87363       51.80006
H         54.09293       35.30595       53.34983
H         53.99343       33.97599       51.20728
H         52.23380       34.29818       51.12491
N         51.95271       37.08049       54.06593
C         50.79211       37.51880       54.82948
C         50.69490       36.83666       56.17873
O         49.67372       36.98420       56.83513
H         52.72764       37.74611       53.93725
H         49.87606       37.32451       54.22630
H         50.84252       38.61283       55.01352
N         51.71905       36.07673       56.66139
C         51.63885       35.30754       57.89669
C         51.48712       36.17593       59.13809
O         51.94211       37.31119       59.16218
C         52.88047       34.40491       58.04469
C         53.05955       33.50922       56.83932
N         52.10694       32.61445       56.48651
O         54.07432       33.60588       56.16645
H         52.57939       35.99421       56.10286
H         50.74455       34.65101       57.81801
H         52.78427       33.77233       58.95235
H         53.78271       35.04811       58.16029
H         51.24191       32.51588       57.03609
H         52.23168       32.01815       55.65547
N         50.82206       35.66983       60.21414
C         50.57110       36.38296       61.45585
C         51.81296       36.56406       62.29825
O         52.48897       35.58101       62.56828
H         50.42409       34.72120       60.13620
H         49.88667       35.75642       62.06810
H         50.04829       37.34295       61.25542
N         52.11917       37.78163       62.83503
C         53.22666       37.97654       63.77059
C         54.55285       37.66717       63.10186
O         55.24710       36.75911       63.53773
C         53.19836       39.41182       64.38671
C         54.33316       39.63307       65.39248
O         53.28410       40.41129       63.40165
H         51.49808       38.57600       62.62140
H         53.08744       37.26967       64.62065
H         52.24434       39.52977       64.95403
H         52.35970       40.66674       63.14730
H         54.27777       38.88824       66.21340
H         55.32365       39.55225       64.89468
H         54.25336       40.65121       65.83024
N         54.97503       38.41375       62.04940
C         56.26125       38.22425       61.38467
C         56.31091       36.88829       60.65707
O         55.30289       36.19367       60.61593
C         56.57320       39.44513       60.45283
C         55.51132       39.64302       59.32679
C         56.73314       40.70650       61.33026
C         55.80654       40.82493       58.39964
H         54.36081       39.17331       61.74296
H         57.05584       38.19696       62.16334
H         57.55782       39.27282       59.96819
H         54.49773       39.81802       59.73842
H         55.46999       38.72256       58.70693
H         57.07762       41.57543       60.73672
H         55.78402       40.97803       61.83771
H         57.50630       40.53019       62.10879
H         55.76801       41.78724       58.95166
H         56.80051       40.70907       57.92162
H         55.02859       40.87651       57.60839
N         57.45742       36.47167       60.03877
C         57.52002       35.23785       59.26312
C         58.79025       34.42788       59.58118
O         59.35318       33.81635       58.68559
C         57.39224       35.66163       57.78541
C         57.13691       34.55150       56.81269
O         56.96806       34.83088       55.63748
O         57.04002       33.26849       57.21310
H         58.28110       37.09224       60.03552
H         56.64245       34.59818       59.50246
H         58.29250       36.23996       57.48634
H         56.51256       36.33851       57.70030
N         59.31287       34.40822       60.84451
C         60.53524       33.68866       61.23648
C         61.72456       34.06855       60.35245
O         61.97200       35.26070       60.21106
C         60.89673       34.06425       62.70057
C         62.25692       33.54963       63.13587
C         62.46155       32.20711       63.49764
C         63.35110       34.43581       63.15559
C         63.73897       31.76543       63.87041
C         64.62351       33.98844       63.51386
C         64.81837       32.65458       63.87345
H         58.82825       34.96299       61.56640
H         60.34559       32.59874       61.17904
H         60.11058       33.74480       63.41868
H         60.92610       35.17559       62.74064
H         61.63725       31.50558       63.49410
H         63.22406       35.47256       62.86976
H         63.89680       30.73266       64.15295
H         65.45828       34.67789       63.50809
H         65.80684       32.31225       64.15261
N         62.57187       33.13636       59.79760
C         63.79480       33.48591       59.08780
C         63.56177       34.32147       57.85129
O         64.46018       35.05147       57.46098
C         64.41030       32.13713       58.70623
C         63.95306       31.26260       59.85125
C         62.49795       31.70010       59.99920
H         64.44693       34.02936       59.81084
H         63.91176       31.74203       57.79101
H         65.50743       32.16649       58.53010
H         64.09594       30.17187       59.69891
H         64.51246       31.57390       60.76461
H         61.86342       31.26163       59.19814
H         62.14587       31.38579       60.99780
N         62.37196       34.26373       57.18269
C         62.08052       35.11678       56.03994
C         62.14109       36.56395       56.48832
O         62.90326       37.33358       55.91900
C         60.68532       34.83549       55.43609
C         60.49388       33.40580       54.89263
C         59.17287       33.31461       54.16845
O         58.18423       32.51566       54.62031
O         58.97928       34.00415       53.18167
H         61.64735       33.61429       57.51417
H         62.83258       34.93369       55.23968
H         60.55145       35.55042       54.59396
H         59.89511       35.03494       56.18753
H         60.51779       32.67827       55.73212
H         61.30647       33.14967       54.17959
N         61.38217       36.98527       57.54025
C         61.40339       38.33557       58.06115
H         60.37648       38.75521       58.03264
H         61.75204       38.31425       59.11560
H         62.07634       39.00195       57.48237
H         60.77089       36.30819       58.02091
Ca        56.02979       32.67058       53.83340
O         55.80325       30.19114       55.63508
H         54.84870       30.07281       55.39962
H         56.27768       29.50427       55.10242
O         57.25654       31.39550       51.41413
H         56.39000       31.15377       51.00030
H         57.66491       30.52823       51.66194
O         56.37217       34.98892       52.03157
H         57.04710       35.50658       52.53598
H         56.84219       34.67095       51.22139

Ca 1.0



