%chk=apoCaM-CA-Ng.loop1.water3.frame1234.chk
%nprocshared=20
%mem=10GB
%nosave
#b3lyp/svp scf=(tight,noincore,xqc) Test 
#IOP(5/87=12) Density=Current Pop=(MK,readradii) iop(6/33=2) iop(6/42=6)

apoCaM-CA-Ng.loop1.water3.frame1234 

   0  1 
C         90.60409       22.78422       18.18125
C         89.56899       23.15214       19.20279
O         88.47408       22.61058       19.14313
H         91.55731       23.32566       18.35384
H         90.80035       21.69270       18.23078
H         90.23074       23.03890       17.16644
N         89.83460       24.08817       20.16025
C         88.85733       24.50039       21.16212
C         88.44636       25.93240       20.88111
O         88.54935       26.80116       21.73672
C         89.43994       24.31013       22.57531
C         89.81314       22.87608       22.82705
O         90.96939       22.57824       23.08168
O         88.87336       21.91282       22.77576
H         90.75529       24.55412       20.16205
H         87.93091       23.89141       21.08183
H         88.69022       24.61794       23.33548
H         90.34127       24.95359       22.69002
N         87.97732       26.23444       19.64184
C         87.55386       27.56351       19.22282
C         86.27448       27.98328       19.94215
O         86.30709       29.04230       20.55284
C         87.46549       27.64171       17.67861
C         88.87163       27.41955       17.07702
C         88.87803       27.38677       15.54880
C         90.31449       27.17781       15.03963
N         90.35169       27.06739       13.58344
H         87.95292       25.47329       18.94635
H         88.34870       28.29738       19.49320
H         87.10962       28.65028       17.37415
H         86.75779       26.89245       17.27361
H         89.28887       26.45148       17.42685
H         89.54443       28.23259       17.43071
H         88.47277       28.33929       15.14441
H         88.23795       26.54498       15.20513
H         90.73824       26.24733       15.48114
H         90.94917       28.03406       15.36184
H         89.96546       27.93431       13.14518
H         91.34419       26.94335       13.27765
H         89.79829       26.23479       13.27607
N         85.12817       27.23625       20.01480
C         84.92115       25.91107       19.43766
C         85.00585       24.84806       20.53196
O         85.13820       25.19833       21.69745
C         83.56200       25.85810       18.69024
C         82.38904       26.04838       19.62268
O         82.32969       25.27512       20.71734
O         81.53722       26.89362       19.41275
H         84.36921       27.60826       20.60850
H         85.71098       25.67026       18.71327
H         83.46316       24.85667       18.22423
H         83.53398       26.61317       17.87435
N         84.95716       23.51822       20.22583
C         85.04856       22.48263       21.24755
C         83.71277       22.19497       21.90183
O         82.69975       22.71357       21.46635
H         84.92357       23.23018       19.23651
H         85.81066       22.77308       22.00308
H         85.38929       21.53309       20.78354
N         83.64751       21.35536       22.97288
C         82.40230       20.97733       23.65138
C         82.31843       19.45225       23.77500
O         83.31219       18.78956       23.51090
C         82.39595       21.67202       25.03533
C         82.20823       23.14844       24.83461
O         81.02458       23.62486       24.38687
O         83.13753       23.91578       25.02571
H         84.53615       20.99358       23.35352
H         81.52525       21.31876       23.06326
H         83.36411       21.45567       25.53948
H         81.60358       21.33730       25.72246
N         81.18806       18.78441       24.16575
C         79.88982       19.39387       24.40621
C         79.24954       19.90628       23.13795
O         79.75071       19.65908       22.05123
H         81.24671       17.76025       24.28038
H         79.96611       20.19585       25.15477
H         79.19508       18.63699       24.83060
N         78.10849       20.64059       23.22458
C         77.37316       21.15854       22.07350
C         78.26168       22.00235       21.16307
O         78.97588       22.86436       21.64809
C         76.13521       21.95421       22.55728
C         75.25633       22.42432       21.39654
O         76.52822       23.07017       23.31568
H         77.74478       20.83649       24.17051
H         76.98707       20.29211       21.49194
H         75.50052       21.26923       23.17154
H         76.39547       22.84536       24.27343
H         74.92013       21.55567       20.79087
H         74.35943       22.94287       21.79622
H         75.80815       23.13130       20.74131
N         78.21761       21.79798       19.81131
C         78.99236       22.49503       18.78264
C         78.77801       23.99801       18.80552
O         79.21720       24.65631       19.73814
C         80.51074       22.16017       18.83687
C         80.72392       20.62715       18.78630
C         81.24955       22.85546       17.66882
C         82.19003       20.19875       18.87439
H         77.55774       21.08648       19.46196
H         78.62665       22.11018       17.80307
H         80.92151       22.54769       19.78926
H         80.28469       20.21148       17.85383
H         80.19854       20.16729       19.64514
H         80.87065       22.48484       16.69211
H         81.11256       23.95538       17.70206
H         82.34232       22.68722       17.72193
H         82.24722       19.09109       18.90356
H         82.76437       20.53593       17.98818
H         82.65868       20.60075       19.79454
N         78.17474       24.61609       17.75324
C         78.08474       26.06263       17.62557
C         76.66312       26.56677       17.73589
O         76.49807       27.77005       17.62204
C         78.78041       26.54618       16.32478
C         78.14865       26.00095       15.04032
O         80.13625       26.18099       16.34887
H         77.78308       24.03483       16.99748
H         78.62281       26.56272       18.46246
H         78.69964       27.65877       16.26588
H         80.61885       26.89062       16.84879
H         78.24040       24.89747       14.98250
H         77.07755       26.28515       14.97766
H         78.67613       26.42892       14.16124
N         75.59724       25.74751       18.01659
C         74.26996       26.29931       18.29191
C         74.38717       27.16687       19.53732
O         74.50004       26.63866       20.63453
C         73.19540       25.19401       18.46304
C         72.99561       24.39981       17.16557
O         73.56393       24.31887       19.49764
H         75.73966       24.73183       18.09174
H         73.96867       26.92784       17.42396
H         72.23219       25.69493       18.71851
H         72.75097       23.80850       19.75109
H         73.92900       23.88060       16.86341
H         72.20403       23.63420       17.31117
H         72.67804       25.07781       16.34562
N         74.56088       28.51364       19.39229
C         74.97265       29.43707       20.44662
C         76.30072       29.02947       21.08461
O         76.77902       27.92594       20.86494
C         73.88439       29.61613       21.52114
C         72.54509       30.04207       20.90541
C         71.49141       30.27966       21.99485
C         70.08813       30.54441       21.42348
N         70.02632       31.75746       20.60655
H         74.48627       28.91489       18.44522
H         75.13616       30.42508       19.95869
H         74.21626       30.39652       22.24097
H         73.74322       28.66693       22.08150
H         72.18961       29.23659       20.22681
H         72.69411       30.97249       20.31701
H         71.80547       31.12886       22.64121
H         71.42189       29.36833       22.62798
H         69.38267       30.64952       22.27712
H         69.76308       29.66948       20.81775
H         69.03810       31.90342       20.29751
H         70.33159       32.58627       21.16609
H         70.61930       31.66132       19.75210
N         76.96738       29.90555       21.88415
C         78.19093       29.56774       22.61235
C         79.26888       28.96303       21.71385
O         79.70008       27.86230       22.02785
C         78.76263       30.77858       23.38958
C         77.79534       31.33052       24.44968
C         78.41194       32.49805       25.16585
O         79.55444       32.34041       25.86128
O         77.87995       33.59609       25.12155
H         76.57645       30.85405       21.97421
H         77.93202       28.79453       23.37288
H         79.03915       31.59541       22.69342
H         79.69002       30.44898       23.91002
H         77.55286       30.53789       25.18922
H         76.84923       31.66699       23.97855
N         79.78179       29.55629       20.59653
C         79.36508       30.81560       20.02128
H         78.53977       31.30033       20.56529
H         80.23171       31.50755       19.99412
H         79.01934       30.63382       18.98193
H         80.52617       29.05871       20.08782
Ca        81.01338       24.82005       22.47482
O         82.95352       26.96324       23.72044
H         82.75358       26.65332       24.63909
H         83.28967       26.15596       23.25789
O         77.78336       25.54805       22.57367
H         76.87706       25.75977       22.91055
H         77.69191       25.57567       21.58965
O         79.57732       26.24635       25.01635
H         78.58865       26.27614       25.05753
H         79.85938       27.18717       25.13950

Ca 1.0



