%chk=apoCaM-CA-Ng.loop2.water4.frame1070.chk
%nprocshared=20
%mem=10GB
%nosave
#b3lyp/svp scf=(tight,noincore,xqc) Test 
#IOP(5/87=12) Density=Current Pop=(MK,readradii) iop(6/33=2) iop(6/42=6)

apoCaM-CA-Ng.loop2.water4.frame1070 

   -2  1 
C         22.47300       45.19330       23.12963
C         22.71730       46.39125       24.01445
O         22.80179       47.48131       23.46854
H         21.53282       45.35239       22.56146
H         23.31125       45.09389       22.40826
H         22.36680       44.23402       23.66502
N         22.84163       46.32977       25.37364
C         22.78510       45.11547       26.17805
C         23.76306       45.23354       27.34377
O         24.90372       45.58786       27.07964
C         21.30979       44.80403       26.52295
C         20.59359       45.96890       27.17245
O         19.63547       46.47774       26.61309
O         20.99398       46.46229       28.35886
H         22.97629       47.21890       25.87812
H         23.20454       44.26514       25.60434
H         21.23534       43.89495       27.15455
H         20.78292       44.57367       25.57121
N         23.42438       44.94121       28.63864
C         24.33737       45.05274       29.77373
C         24.75596       46.48775       30.07216
O         25.55903       46.66468       30.97837
C         25.55635       44.13013       29.59751
H         22.48210       44.59441       28.85599
H         23.80605       44.69065       30.68254
H         26.20130       44.43604       28.75059
H         26.18142       44.14509       30.51621
H         25.21707       43.08543       29.43381
N         24.22962       47.56346       29.40846
C         24.60100       48.94181       29.71380
C         23.43059       49.71156       30.28511
O         22.28777       49.30257       30.12763
C         25.18095       49.64723       28.46941
C         24.26923       49.60581       27.26849
O         24.65182       49.08508       26.23312
O         23.03977       50.14861       27.31773
H         23.51182       47.42076       28.68596
H         25.38609       48.95863       30.49957
H         26.13687       49.14936       28.19956
H         25.40411       50.70819       28.71325
N         23.66693       50.82688       31.03325
C         22.60101       51.60234       31.63325
C         21.86224       52.45347       30.62700
O         20.86479       53.04487       31.01523
H         24.64007       51.10285       31.23378
H         23.02158       52.29463       32.39468
H         21.90385       50.91353       32.16011
N         22.31471       52.64263       29.34901
C         21.60880       53.51289       28.41912
C         20.33210       52.80090       27.91872
O         20.65093       51.77264       27.02032
C         22.50460       53.94350       27.23237
C         23.72789       54.70291       27.68390
N         24.96817       54.28335       27.34039
O         23.59703       55.71925       28.35010
H         23.21049       52.22724       29.05622
H         21.32566       54.44162       28.96533
H         21.92449       54.61620       26.56867
H         22.80799       53.05524       26.63761
H         25.10185       53.43996       26.76374
H         25.80033       54.81298       27.63973
N         19.32434       53.73813       27.38589
C         18.58905       53.30240       26.18949
C         17.27444       54.04431       26.10782
O         16.94553       54.76683       27.03910
H         19.70743       54.69786       27.22089
H         18.34686       52.21789       26.24275
H         19.20982       53.49954       25.28920
N         16.41883       53.91275       25.05757
C         16.70524       53.18582       23.82660
C         17.52892       54.07291       22.91143
O         17.12183       55.20260       22.67888
C         15.37405       52.81937       23.11983
C         15.60813       52.04136       21.81928
O         14.59418       52.01821       23.97154
H         15.51996       54.41780       25.11873
H         17.21674       52.22276       24.04897
H         14.81591       53.74864       22.84910
H         14.00059       52.62455       24.48672
H         14.63262       51.79149       21.35149
H         16.19003       52.64436       21.09094
H         16.15728       51.09794       22.02612
N         18.65705       53.60933       22.30152
C         19.37962       54.38886       21.29836
C         18.76870       54.08385       19.93457
O         18.83250       52.93016       19.53232
C         20.89914       54.05191       21.34555
C         21.50029       54.21016       22.76704
C         21.69720       54.88052       20.32301
C         21.25262       55.57372       23.41359
H         18.92402       52.62342       22.44762
H         19.28012       55.46632       21.52852
H         21.03920       52.98420       21.06342
H         22.59510       54.02195       22.71091
H         21.07148       53.44029       23.44303
H         21.62050       55.96676       20.53041
H         22.76976       54.59418       20.34684
H         21.33079       54.68136       19.29413
H         20.17288       55.72863       23.61295
H         21.78668       55.62638       24.38340
H         21.60653       56.38780       22.76211
N         18.10095       55.00307       19.16875
C         17.88099       56.40759       19.52378
C         19.12832       57.27124       19.33622
O         20.07841       56.83763       18.70486
C         16.66399       56.98278       18.75349
C         16.76429       56.96370       17.24645
O         15.82026       57.36162       16.58263
O         17.86118       56.50077       16.61574
H         17.64634       54.63945       18.31671
H         17.57909       56.45198       20.58696
H         16.47940       58.02904       19.07883
H         15.77110       56.38142       19.03527
N         19.17326       58.52318       19.88607
C         20.29874       59.46199       19.76210
C         20.00980       60.70805       20.59837
O         18.92359       61.24559       20.42754
C         20.51350       59.87400       18.27838
C         21.67205       60.84010       18.12538
C         21.50190       62.21487       18.38117
C         22.94323       60.37040       17.75141
C         22.58332       63.09464       18.27709
C         24.02384       61.25418       17.65647
C         23.84460       62.61410       17.92183
H         18.35379       58.81319       20.44097
H         21.23022       58.97432       20.11397
H         19.59633       60.31757       17.83137
H         20.73828       58.96372       17.68668
H         20.53453       62.60832       18.66554
H         23.10341       59.31826       17.55412
H         22.44478       64.14892       18.48178
H         25.00308       60.88370       17.38334
H         24.68266       63.29587       17.85332
N         20.91685       61.29753       21.45440
C         22.32681       60.93637       21.63572
C         22.59476       59.63480       22.36874
O         21.65303       58.95336       22.74734
C         22.89735       62.10734       22.44998
C         22.02092       63.26218       22.02209
C         20.65495       62.59510       22.04920
H         22.80729       60.92356       20.63518
H         22.66519       61.95502       23.52198
H         23.99217       62.26200       22.34372
H         22.09936       64.16656       22.66186
H         22.27519       63.53298       20.97594
H         20.32966       62.43957       23.10236
H         19.90209       63.20888       21.50918
N         23.88528       59.23032       22.59181
C         24.22728       57.96226       23.23449
C         25.68303       57.55945       22.96226
O         26.42457       57.31331       23.90123
C         23.85587       57.96393       24.75457
C         24.66211       58.91325       25.67676
C         24.43918       60.36488       25.39449
O         25.36939       61.07847       25.05232
O         23.22037       60.89943       25.58645
H         24.65051       59.81475       22.21964
H         23.63858       57.16615       22.74237
H         24.01924       56.93221       25.13533
H         22.77425       58.18076       24.88050
H         25.74471       58.69401       25.63065
H         24.35436       58.73287       26.72906
N         26.19244       57.41430       21.70335
C         25.46763       57.60727       20.46350
H         24.40538       57.87336       20.60557
H         25.96070       58.41175       19.87832
H         25.49951       56.66719       19.87507
H         27.18129       57.13223       21.61294
Ca        20.16561       49.82576       28.10608
O         19.24174       49.49285       25.26442
H         19.02565       50.06020       24.48256
H         19.81766       48.77367       24.90181
O         17.19073       49.86485       27.79732
H         16.61927       50.01387       27.00309
H         16.87893       50.53248       28.45844
O         18.80737       50.85360       30.51226
H         18.68834       51.81617       30.31267
H         19.31450       50.83133       31.36211
O         18.35714       47.58337       29.70354
H         17.42273       47.26691       29.78782
H         18.75925       47.41253       30.59208

Ca 1.0



