%chk=apoCaM-CA-Ng.loop1.water4.frame712.chk
%nprocshared=20
%mem=10GB
%nosave
#b3lyp/svp scf=(tight,noincore,xqc) Test 
#IOP(5/87=12) Density=Current Pop=(MK,readradii) iop(6/33=2) iop(6/42=6)

apoCaM-CA-Ng.loop1.water4.frame712 

   0  1 
C         71.11350       21.01509       -5.85468
C         72.54430       20.68258       -6.15569
O         72.88127       20.56430       -7.32514
H         70.45644       20.22393       -6.27307
H         70.93255       21.08491       -4.76184
H         70.85360       21.98796       -6.32199
N         73.44730       20.51772       -5.14696
C         74.84849       20.18712       -5.37862
C         75.20607       18.83406       -4.79507
O         74.35250       18.18274       -4.21111
C         75.75478       21.34806       -4.90474
C         75.79842       21.79670       -3.45438
O         75.13694       21.23320       -2.41829
O         76.50343       22.76091       -3.20242
H         73.12756       20.63732       -4.17603
H         75.04034       20.08959       -6.46953
H         75.44494       22.23842       -5.49508
H         76.80096       21.11917       -5.19778
N         76.46038       18.32692       -4.95953
C         76.89542       17.06631       -4.37356
C         77.99254       17.37005       -3.37952
O         79.02643       17.89279       -3.77233
C         77.30769       16.03327       -5.45082
C         78.40067       16.48823       -6.44240
C         78.75571       15.40601       -7.47946
C         79.48878       14.20208       -6.86289
N         79.84934       13.22217       -7.88683
H         77.15244       18.87977       -5.48646
H         76.05994       16.59027       -3.81637
H         76.40184       15.77945       -6.04423
H         77.62761       15.11671       -4.91671
H         79.33114       16.78411       -5.91792
H         78.01798       17.36881       -7.00033
H         79.43437       15.86510       -8.23137
H         77.83483       15.07155       -8.00523
H         78.85325       13.69974       -6.10504
H         80.41528       14.56524       -6.36553
H         80.37301       12.43615       -7.43753
H         78.98541       12.83915       -8.33477
H         80.46024       13.66231       -8.61257
N         77.80263       17.12103       -2.05047
C         78.78087       17.47468       -1.02896
C         79.28016       16.23534       -0.29199
O         78.62413       15.20499       -0.35752
C         78.18496       18.54838       -0.08704
C         76.90396       18.12180        0.57479
O         75.87658       18.75020        0.37450
O         76.88317       17.06160        1.40421
H         76.91710       16.69132       -1.74446
H         79.66286       17.91904       -1.53141
H         77.98596       19.45835       -0.69617
H         78.89807       18.83247        0.71044
N         80.48770       16.20276        0.35214
C         81.39496       17.33514        0.44966
C         82.52692       17.20343       -0.53002
O         82.26714       17.00971       -1.70971
H         80.80933       15.30374        0.74354
H         81.73518       17.46293        1.49947
H         80.90869       18.28326        0.18053
N         83.80909       17.41997       -0.13545
C         84.91240       17.47477       -1.08518
C         85.22957       16.08869       -1.61394
O         85.53199       15.20637       -0.82158
C         86.15172       18.10654       -0.41381
C         87.28822       18.39708       -1.36430
O         87.20679       18.14054       -2.55575
O         88.40533       18.98091       -0.89233
H         83.98442       17.65570        0.85391
H         84.62437       18.16413       -1.91214
H         86.51321       17.45029        0.40656
H         85.84893       19.08141        0.02790
N         85.22429       15.83647       -2.95390
C         85.61629       14.55067       -3.50857
C         84.62945       13.43058       -3.25150
O         84.93817       12.31023       -3.63223
H         85.00937       16.60238       -3.61033
H         86.61422       14.27783       -3.10176
H         85.71612       14.64376       -4.61190
N         83.41205       13.64706       -2.67458
C         82.41679       12.59495       -2.48680
C         81.99068       12.49307       -1.03158
O         82.43498       13.28009       -0.20574
C         81.20332       12.85189       -3.42450
C         80.50575       14.19311       -3.17188
O         81.62766       12.81529       -4.76157
H         83.15006       14.60194       -2.39811
H         82.83713       11.60348       -2.76282
H         80.43149       12.06385       -3.26922
H         81.71809       11.85786       -5.00924
H         79.62037       14.28717       -3.83136
H         80.16253       14.25267       -2.12314
H         81.17623       15.04940       -3.38952
N         81.09391       11.53513       -0.65680
C         80.56429       11.42751        0.70032
C         81.60573       10.80654        1.64119
O         81.40819       10.84636        2.84576
C         79.20932       10.62626        0.70010
C         78.21178       11.23216       -0.33786
C         78.55480       10.60383        2.09999
C         76.88731       10.47335       -0.45939
H         80.75362       10.88504       -1.37898
H         80.32776       12.45995        1.04544
H         79.42471        9.57657        0.39854
H         78.65242       11.20473       -1.35320
H         78.00008       12.29480       -0.09282
H         79.19377       10.11305        2.85496
H         78.31635       11.63674        2.43337
H         77.62567       10.00219        2.10112
H         76.28327       10.55408        0.46561
H         76.28580       10.91595       -1.28132
H         77.07350        9.40357       -0.69415
N         82.73189       10.19675        1.16123
C         83.71179        9.51880        2.00788
C         83.74258        8.03347        1.64877
O         83.06876        7.61755        0.71665
C         85.08982       10.21780        1.83953
C         85.04172       11.64625        2.39464
O         86.09910        9.52164        2.52263
H         82.90481       10.16589        0.14669
H         83.41703        9.56937        3.07929
H         85.32834       10.24256        0.74937
H         86.95707        9.73034        2.06743
H         86.02561       12.14081        2.25172
H         84.26535       12.25223        1.88486
H         84.82037       11.61973        3.48468
N         84.48715        7.16839        2.39437
C         84.56247        5.73012        2.16099
C         84.10073        4.99287        3.41142
O         83.18877        4.18113        3.33648
C         86.01816        5.34286        1.76696
C         86.13980        3.83627        1.47983
O         86.92361        5.72185        2.77468
H         85.02421        7.54749        3.18402
H         83.90869        5.43204        1.31073
H         86.27189        5.90038        0.83719
H         87.82613        5.40075        2.51602
H         85.43814        3.53873        0.67304
H         87.17218        3.59510        1.14749
H         85.92249        3.24177        2.39256
N         84.72972        5.22325        4.59394
C         84.49925        4.51854        5.84104
C         84.12298        5.53384        6.90466
O         84.86456        6.48943        7.09706
C         85.82828        3.81592        6.18719
C         85.88563        3.16800        7.57597
C         87.30801        2.64657        7.82826
C         87.50202        2.19072        9.27669
N         88.89512        1.81047        9.51278
H         85.47542        5.93190        4.62162
H         83.70217        3.74696        5.74850
H         86.63592        4.58089        6.14704
H         86.04534        3.05117        5.40728
H         85.13744        2.35081        7.66969
H         85.66463        3.94515        8.33821
H         88.02728        3.47482        7.64268
H         87.53944        1.81558        7.12531
H         86.83091        1.33286        9.49949
H         87.24227        3.03109        9.95912
H         89.01144        1.53422       10.51398
H         89.15967        1.00580        8.89983
H         89.52632        2.62235        9.31643
N         83.00766        5.36979        7.67150
C         82.65648        6.30920        8.73176
C         82.28307        7.67295        8.15005
O         83.00186        8.61742        8.44437
C         81.58288        5.73152        9.67994
C         82.12321        4.53211       10.47598
C         81.06921        3.97801       11.39053
O         80.70461        2.81884       11.27519
O         80.52635        4.75416       12.34827
H         82.42685        4.52895        7.52903
H         83.55601        6.46047        9.37373
H         80.69080        5.39933        9.12225
H         81.28550        6.52063       10.40590
H         82.99284        4.85181       11.09063
H         82.46231        3.73477        9.77994
N         81.23075        7.90658        7.30966
C         80.27007        6.92041        6.86741
H         79.56365        7.38792        6.14874
H         80.77666        6.07574        6.35909
H         79.65316        6.57158        7.71510
H         81.10553        8.86632        6.95051
Ca        73.76544       19.49932       -1.97386
O         74.07119       16.48530       -1.30771
H         74.61856       16.49478       -0.48332
H         74.49665       15.79830       -1.87926
O         71.50113       21.51708       -1.79488
H         71.30232       21.68391       -0.83942
H         72.08336       22.27159       -2.06390
O         71.33102       17.92442       -2.20694
H         71.02939       17.82653       -3.14474
H         70.51355       17.79809       -1.66351
O         73.80158       21.60829        0.72975
H         73.39802       22.48413        0.50476
H         73.63241       21.49942        1.69927

Ca 1.0



