%chk=apoCaM-CA-Ng.loop2.water5.frame243.chk
%nprocshared=20
%mem=10GB
%nosave
#b3lyp/svp scf=(tight,noincore,xqc) Test 
#IOP(5/87=12) Density=Current Pop=(MK,readradii) iop(6/33=2) iop(6/42=6)

apoCaM-CA-Ng.loop2.water5.frame243 

   -2  1 
C         37.41381        8.65907       99.94985
C         38.07250        7.65301      100.84696
O         39.03109        7.99171      101.52676
H         36.35532        8.79115      100.25863
H         37.92738        9.64271      100.01006
H         37.43934        8.29941       98.90064
N         37.58574        6.38188      100.90914
C         38.12495        5.36104      101.80782
C         39.58693        5.03388      101.52991
O         40.13348        5.47656      100.53146
C         37.25975        4.07743      101.77162
C         37.27224        3.36687      100.43918
O         36.84223        3.91054       99.43452
O         37.73380        2.10475      100.35812
H         36.76028        6.16437      100.33204
H         38.06646        5.77696      102.83786
H         36.21109        4.33687      102.03219
H         37.62729        3.37282      102.54742
N         40.28974        4.26553      102.41200
C         41.70757        3.95684      102.25233
C         42.52376        5.24081      102.25736
O         42.44815        5.99393      103.21874
C         42.17607        3.02435      103.37664
H         39.79680        3.90408      103.24304
H         41.85146        3.41130      101.29319
H         41.58710        2.08155      103.35197
H         43.24854        2.76721      103.24431
H         42.03755        3.50089      104.37081
N         43.30351        5.56415      101.18612
C         44.02782        6.82722      101.06430
C         45.04768        7.00773      102.18851
O         45.92050        6.16603      102.35237
C         44.71441        6.91135       99.67439
C         45.39783        8.23926       99.48188
O         44.68895        9.38089       99.51714
O         46.61310        8.29445       99.39556
H         43.34605        4.89750      100.39965
H         43.28515        7.65212      101.11127
H         43.95857        6.78121       98.87004
H         45.46049        6.09110       99.58796
N         45.01222        8.13019      102.96743
C         45.97706        8.38603      104.03617
C         46.03307        9.82986      104.55560
O         46.73643       10.04939      105.53167
H         44.26750        8.80621      102.76969
H         47.00489        8.16857      103.66849
H         45.76249        7.68476      104.87083
N         45.43184       10.87706      103.91368
C         45.61798       12.28006      104.28473
C         44.91357       12.64621      105.58713
O         43.72539       12.39591      105.72510
C         45.10140       13.17742      103.13679
C         45.44358       14.64298      103.27725
N         45.08207       15.50571      102.30339
O         46.06348       15.05802      104.24506
H         44.91340       10.70475      103.04625
H         46.71162       12.47860      104.35465
H         44.00379       13.05910      103.03812
H         45.57429       12.83459      102.19010
H         44.57014       15.17413      101.47302
H         45.32536       16.50426      102.37662
N         45.59107       13.31970      106.55786
C         45.00042       13.80528      107.79627
C         43.91650       14.84777      107.57928
O         44.15131       15.81221      106.86411
H         46.59001       13.52817      106.40644
H         45.80495       14.31010      108.37525
H         44.63108       12.95645      108.40897
N         42.73722       14.76755      108.26511
C         41.72201       15.82214      108.23665
C         41.05377       15.93292      106.87359
O         41.08795       17.01406      106.30357
C         40.70113       15.70464      109.41088
C         39.81551       14.45095      109.43572
O         41.36768       15.84797      110.64284
H         42.61048       13.97239      108.90725
H         42.23085       16.79353      108.44023
H         40.00780       16.57147      109.33037
H         41.88109       15.01794      110.81981
H         40.42209       13.52559      109.50754
H         39.14535       14.49697      110.32118
H         39.16769       14.40648      108.54245
N         40.45120       14.86141      106.27841
C         39.81055       14.93268      104.96087
C         40.61143       14.14774      103.94593
O         41.58848       13.51940      104.32404
C         38.30645       14.51374      105.03302
C         38.00359       13.12610      105.66789
C         37.52595       15.58711      105.80818
C         38.57582       11.92452      104.91903
H         40.48994       13.94815      106.75316
H         39.84530       15.97312      104.57119
H         37.88929       14.51656      104.00250
H         36.89933       12.98994      105.67875
H         38.34749       13.09107      106.72194
H         37.66016       16.58032      105.32845
H         36.43924       15.35595      105.80136
H         37.87068       15.65044      106.86117
H         38.22978       10.99145      105.41379
H         38.21956       11.91784      103.86769
H         39.68073       11.91652      104.94684
N         40.28207       14.18846      102.61654
C         41.06850       13.49463      101.60086
C         41.73905       14.45245      100.61697
O         42.57109       13.99573       99.84251
C         40.18476       12.45431      100.88584
C         41.04515       11.43061      100.21511
O         41.84184       10.80612      100.89901
O         40.95346       11.12745       98.90915
H         39.45855       14.72947      102.31844
H         41.88912       12.95443      102.11380
H         39.47275       12.94518      100.18617
H         39.59575       11.90069      101.64894
N         41.44333       15.78335      100.58718
C         42.10057       16.76631       99.73381
C         41.10940       17.31102       98.71860
O         40.00450       17.66215       99.11614
C         42.68154       17.87681      100.63792
C         43.28527       19.03499       99.87690
C         44.67902       19.18121       99.77096
C         42.44995       19.99867       99.28189
C         45.22149       20.26370       99.06869
C         42.99518       21.08073       98.58997
C         44.38020       21.21258       98.48034
H         40.70792       16.15000      101.20817
H         42.95485       16.30464       99.19569
H         43.45699       17.39734      101.26650
H         41.91355       18.28139      101.33222
H         45.34464       18.45464      100.21990
H         41.37401       19.92261       99.36411
H         46.29481       20.36927       98.98154
H         42.34130       21.81799       98.14223
H         44.80001       22.05252       97.94263
N         41.43109       17.46991       97.39544
C         40.52748       18.00050       96.38375
C         39.28719       17.14927       96.19654
O         38.20116       17.69495       96.07370
C         41.36817       17.99329       95.09958
C         42.75741       18.22953       95.64378
C         42.76282       17.28622       96.84004
H         40.26615       19.05104       96.64739
H         41.38055       16.97468       94.64794
H         41.02603       18.71756       94.32913
H         43.58489       18.06880       94.92101
H         42.80863       19.27897       96.01931
H         42.87926       16.22732       96.51852
H         43.58814       17.59518       97.51229
N         39.39144       15.78719       96.17245
C         38.26384       14.88460       95.93430
C         37.14693       15.01243       96.96729
O         36.09889       14.42153       96.74228
C         38.75063       13.41435       95.91802
C         39.72501       13.12047       94.76494
C         40.26335       11.72315       94.86676
O         40.04753       10.91093       93.98204
O         41.01479       11.36918       95.92707
H         40.32698       15.38068       96.31569
H         37.82895       15.13783       94.94157
H         37.88279       12.72656       95.80397
H         39.23547       13.19792       96.89711
H         40.59432       13.80775       94.77862
H         39.18836       13.25742       93.80059
N         37.28073       15.74236       98.11186
C         36.22073       15.90288       99.08661
H         35.28483       15.38496       98.78929
H         36.55484       15.49632      100.06347
H         35.99525       16.98380       99.20459
H         38.17012       16.20476       98.32697
Ca        42.70971        9.78625       98.50691
O         41.93293        8.04596       95.86838
H         42.03727        8.53739       95.01516
H         42.50659        7.24539       95.76628
O         44.41644       10.05519       95.80305
H         44.19794       10.13887       94.84094
H         45.40301       10.12837       95.84209
O         39.23337        9.43161       97.24351
H         38.65001       10.20725       97.43948
H         39.02951        9.19413       96.30488
O         44.25843       12.41913       97.85608
H         44.41177       13.39398       97.93428
H         45.03898       12.00812       98.30575
O         41.19307        7.45303       98.93286
H         40.22154        7.53904       98.77046
H         41.32413        7.84782       99.83115

Ca 1.0



