%chk=apoCaM-CA-Ng.loop2.water3.frame730.chk
%nprocshared=20
%mem=10GB
%nosave
#b3lyp/svp scf=(tight,noincore,xqc) Test 
#IOP(5/87=12) Density=Current Pop=(MK,readradii) iop(6/33=2) iop(6/42=6)

apoCaM-CA-Ng.loop2.water3.frame730 

   -2  1 
C         76.52194      112.11036      -19.53714
C         77.40401      112.90547      -20.45069
O         76.98497      113.21270      -21.55804
H         75.54421      111.90073      -20.02294
H         77.01255      111.14693      -19.28902
H         76.33850      112.68361      -18.60415
N         78.64528      113.29188      -20.03880
C         79.53914      114.09450      -20.86114
C         79.72159      115.43686      -20.19010
O         80.44228      115.52634      -19.20550
C         80.87467      113.34831      -21.06463
C         81.87034      114.08014      -21.92838
O         81.58442      115.28187      -22.46734
O         82.95912      113.57318      -22.14506
H         78.95560      113.03020      -19.08974
H         79.08633      114.26253      -21.86261
H         80.66202      112.36603      -21.53947
H         81.34140      113.15658      -20.07289
N         79.01812      116.51460      -20.64120
C         79.07247      117.83438      -20.02465
C         77.73562      118.13083      -19.33340
O         76.81066      117.35308      -19.52855
C         79.40842      118.84626      -21.12767
H         78.36820      116.38258      -21.43223
H         79.87260      117.84522      -19.26884
H         79.53405      119.87559      -20.76230
H         80.36407      118.55931      -21.61500
H         78.60658      118.84730      -21.89739
N         77.50754      119.18670      -18.48792
C         78.48530      120.19055      -18.06258
C         79.64968      119.58255      -17.29068
O         79.60980      118.40990      -16.94369
C         77.79503      121.31798      -17.25247
C         77.11787      120.88304      -15.97590
O         76.46797      121.79854      -15.23265
O         77.13325      119.71880      -15.61079
H         76.54723      119.27257      -18.11837
H         78.88916      120.68331      -18.95991
H         77.02116      121.78217      -17.90207
H         78.53715      122.10518      -17.00238
N         80.75396      120.33605      -17.01954
C         81.95425      119.79135      -16.40104
C         82.64833      118.78917      -17.31299
O         82.16370      118.55155      -18.40997
H         80.76303      121.33064      -17.29131
H         81.69423      119.33644      -15.42359
H         82.67000      120.62385      -16.22413
N         83.82066      118.17505      -16.98419
C         84.54606      118.35253      -15.73536
C         84.78223      116.98907      -15.11082
O         85.45356      116.16695      -15.71994
C         85.86904      119.08171      -16.04462
C         86.72392      119.31755      -14.82489
N         88.00246      118.87268      -14.78408
O         86.26700      119.93546      -13.87499
H         84.24575      117.55129      -17.68957
H         83.97273      118.98601      -15.02851
H         85.62122      120.07136      -16.48611
H         86.44333      118.50814      -16.80537
H         88.41389      118.36721      -15.58260
H         88.59223      119.04857      -13.95736
N         84.24383      116.67193      -13.89851
C         84.47894      115.36262      -13.30015
C         83.78980      115.06929      -11.97482
O         84.07014      113.99732      -11.45295
H         83.67925      117.38564      -13.42900
H         85.57385      115.25664      -13.13824
H         84.15315      114.57326      -14.01284
N         82.88799      115.89823      -11.36499
C         82.25027      115.57184      -10.09076
C         80.75822      115.41443      -10.25355
O         80.20662      115.80882      -11.27427
C         82.55248      116.66603       -9.03812
C         84.03283      116.66666       -8.66302
O         82.21107      117.94050       -9.52726
H         82.60818      116.78481      -11.79989
H         82.61599      114.59305       -9.70915
H         81.98972      116.46452       -8.09756
H         81.22141      117.98323       -9.58381
H         84.22624      117.45476       -7.90480
H         84.31136      115.68370       -8.22634
H         84.66794      116.86289       -9.55235
N         80.03851      114.79175       -9.27886
C         78.60405      114.60351       -9.38958
C         77.92853      115.92132       -9.05470
O         77.95947      116.32394       -7.89955
C         78.10307      113.42283       -8.49009
C         76.55800      113.26663       -8.58088
C         78.80857      112.11199       -8.90759
C         75.98444      112.14593       -7.70561
H         80.53750      114.40232       -8.46306
H         78.37402      114.30117      -10.43165
H         78.37019      113.64033       -7.43203
H         76.25078      113.08505       -9.63135
H         76.08307      114.21123       -8.24423
H         78.54087      111.83678       -9.95022
H         79.91112      112.20771       -8.84349
H         78.53697      111.27382       -8.23515
H         76.33534      111.14723       -8.03649
H         76.26229      112.30236       -6.64195
H         74.87667      112.14281       -7.78624
N         77.27058      116.62539      -10.01876
C         76.43797      117.78758       -9.74854
C         74.96635      117.42258       -9.93617
O         74.12578      118.25598       -9.62673
C         76.85510      118.99776      -10.62379
C         76.63316      118.73267      -12.08821
O         77.63690      118.77774      -12.97890
O         75.51777      118.45055      -12.48914
H         77.29563      116.28317      -10.98307
H         76.54909      118.08760       -8.68362
H         77.92502      119.23617      -10.43844
H         76.24935      119.88321      -10.33362
N         74.57295      116.18789      -10.39273
C         73.19616      115.73414      -10.31360
C         72.89762      114.70852      -11.41613
O         72.59850      113.56649      -11.09377
C         73.01798      115.19424       -8.87362
C         71.61227      114.82880       -8.48548
C         70.58285      115.78291       -8.55398
C         71.32884      113.54336       -7.99458
C         69.28938      115.45250       -8.14352
C         70.03517      113.22001       -7.57725
C         69.01603      114.17329       -7.65252
H         75.27364      115.46314      -10.59691
H         72.50339      116.59049      -10.44600
H         73.33274      115.99071       -8.16402
H         73.70525      114.33346       -8.72286
H         70.78010      116.78421       -8.91483
H         72.11102      112.79772       -7.91680
H         68.50176      116.19252       -8.19744
H         69.82535      112.23257       -7.18771
H         68.01601      113.92303       -7.32479
N         72.93312      115.03930      -12.75099
C         72.57981      114.13259      -13.84202
C         73.39842      112.86236      -13.95362
O         73.01006      111.99286      -14.72152
C         72.83105      114.96699      -15.10369
C         72.49484      116.35661      -14.62497
C         73.16305      116.37712      -13.25190
H         71.50434      113.87821      -13.70871
H         73.92549      114.97416      -15.32720
H         72.29267      114.61733      -16.01015
H         72.80596      117.18084      -15.30010
H         71.39014      116.40040      -14.48871
H         74.25814      116.52634      -13.33689
H         72.68438      117.17447      -12.64623
N         74.56864      112.70035      -13.27764
C         75.34846      111.47359      -13.36120
C         74.54772      110.36768      -12.71196
O         74.26262      109.37268      -13.36406
C         76.71674      111.61047      -12.66540
C         77.73018      112.50866      -13.40097
C         77.36287      113.95706      -13.48026
O         77.60955      114.66520      -14.59612
O         77.04687      114.54878      -12.46891
H         74.90377      113.46523      -12.68206
H         75.55451      111.21750      -14.42549
H         77.18669      110.60293      -12.62880
H         76.58791      111.95459      -11.61881
H         77.94955      112.12092      -14.41853
H         78.67322      112.46147      -12.81338
N         74.11415      110.50026      -11.42798
C         73.29142      109.50134      -10.78609
H         72.35135      109.36370      -11.36260
H         73.83836      108.53752      -10.72734
H         73.02920      109.83310       -9.75893
H         74.35053      111.35175      -10.89553
Ca        77.81635      116.87421      -14.16781
O         75.55282      117.02209      -16.50275
H         74.72294      117.38793      -16.89956
H         75.83014      116.30688      -17.12833
O         80.87523      116.83527      -14.42265
H         81.06739      117.61043      -13.83784
H         80.39467      116.19935      -13.83666
O         78.93366      115.43767      -16.87096
H         78.32670      115.92370      -17.48254
H         78.67498      114.48756      -16.97329

Ca 1.0



