%chk=apoCaM-CA-Ng.loop2.water2.frame854.chk
%nprocshared=20
%mem=10GB
%nosave
#b3lyp/svp scf=(tight,noincore,xqc) Test 
#IOP(5/87=12) Density=Current Pop=(MK,readradii) iop(6/33=2) iop(6/42=6)

apoCaM-CA-Ng.loop2.water2.frame854 

   -2  1 
C         59.56561       45.22622      -14.23136
C         58.50902       45.45822      -15.26897
O         57.73614       44.55362      -15.55210
H         60.56969       45.39159      -14.67481
H         59.41708       45.93488      -13.38948
H         59.51221       44.18851      -13.83866
N         58.42090       46.66775      -15.88719
C         57.40477       46.97308      -16.88659
C         56.02768       46.90219      -16.24753
O         55.18363       46.16301      -16.73216
C         57.66354       48.36609      -17.50066
C         56.73466       48.65444      -18.64789
O         56.73510       47.93413      -19.63418
O         55.91408       49.72062      -18.60375
H         59.10918       47.39478      -15.63455
H         57.48688       46.23070      -17.71325
H         58.70285       48.40218      -17.89458
H         57.56482       49.15503      -16.72403
N         55.75805       47.63584      -15.12791
C         54.48667       47.61405      -14.40517
C         54.58019       48.56678      -13.21300
O         55.44526       48.34204      -12.37687
C         54.16250       46.20537      -13.87937
H         56.51192       48.24250      -14.76878
H         53.68553       47.90997      -15.10776
H         53.20550       46.22293      -13.31544
H         54.04230       45.47643      -14.70447
H         54.96780       45.84236      -13.20567
N         53.79332       49.67137      -13.04423
C         52.70903       50.07531      -13.93597
C         52.36603       51.55686      -13.79156
O         52.87887       52.22930      -12.90859
C         51.46699       49.17044      -13.73272
C         50.94942       49.19051      -12.31648
O         49.80887       49.55591      -12.08536
O         51.72383       48.75864      -11.30168
H         54.01421       50.26826      -12.23260
H         53.07635       50.00081      -14.98115
H         51.71405       48.11819      -13.97422
H         50.66072       49.48598      -14.42925
N         51.56946       52.15009      -14.72556
C         51.31219       53.58076      -14.78000
C         49.84272       53.85216      -14.98887
O         49.49397       54.30052      -16.07178
H         51.20625       51.57446      -15.50109
H         51.85276       53.96532      -15.67258
H         51.70672       54.13096      -13.90131
N         48.88791       53.59834      -14.05304
C         49.14445       53.15413      -12.68913
C         49.75162       54.31032      -11.90753
O         49.17235       55.38842      -11.92325
C         47.80524       52.69705      -12.06585
C         47.91964       51.92607      -10.77568
N         46.79928       51.41303      -10.21804
O         49.00486       51.72342      -10.25246
H         47.90613       53.75367      -14.33596
H         49.80304       52.26053      -12.71093
H         47.32679       51.99467      -12.78286
H         47.12643       53.56727      -11.92826
H         45.88007       51.55778      -10.65984
H         46.84294       50.85432       -9.35749
N         50.90418       54.16711      -11.19544
C         51.54384       55.27395      -10.49355
C         51.31363       55.24081       -8.99832
O         51.83034       56.11449       -8.31720
H         51.33373       53.23446      -11.12261
H         51.15395       56.25100      -10.84985
H         52.63193       55.25526      -10.72097
N         50.52733       54.29260       -8.41765
C         50.22951       54.23704       -6.99139
C         50.81129       52.96802       -6.40318
O         51.41323       52.18840       -7.12740
C         48.69247       54.32156       -6.77785
C         48.15031       55.70019       -7.15229
O         48.02574       53.35698       -7.54854
H         50.10735       53.56142       -9.00381
H         50.70834       55.07697       -6.44253
H         48.43586       54.18505       -5.70278
H         48.12903       52.49759       -7.07166
H         48.34732       55.93109       -8.21995
H         47.05275       55.72868       -6.97856
H         48.62297       56.47804       -6.51534
N         50.68120       52.70798       -5.07175
C         51.22916       51.51853       -4.43595
C         50.05523       50.67793       -3.97861
O         49.24519       51.14657       -3.19186
C         52.18902       51.91725       -3.28217
C         52.81924       50.69115       -2.56670
C         53.28303       52.87987       -3.78709
C         53.71023       49.80519       -3.44718
H         50.16328       53.37396       -4.47920
H         51.81716       50.93632       -5.17506
H         51.59948       52.47292       -2.51908
H         52.01116       50.05902       -2.14087
H         53.43536       51.05867       -1.71712
H         53.95125       53.17684       -2.95144
H         53.89033       52.41932       -4.59345
H         52.83030       53.80878       -4.19431
H         54.12030       48.97403       -2.83608
H         53.13269       49.35861       -4.27956
H         54.56887       50.37519       -3.85727
N         49.87126       49.44137       -4.51360
C         48.67647       48.63343       -4.31915
C         48.98727       47.27507       -3.71267
O         48.04371       46.50168       -3.58062
C         48.03860       48.40203       -5.70909
C         47.57873       49.66743       -6.37862
O         46.63073       50.28931       -5.92720
O         48.18700       50.10225       -7.50026
H         50.58066       49.07630       -5.16055
H         47.94282       49.14294       -3.65721
H         47.15723       47.72800       -5.64075
H         48.78966       47.89754       -6.35568
N         50.24939       46.86550       -3.37230
C         50.50537       45.47640       -2.98829
C         51.99670       45.12052       -2.98803
O         52.81489       46.01851       -2.81820
C         49.77807       45.08543       -1.65543
C         50.68441       44.93469       -0.45169
C         51.39106       46.02590        0.08000
C         50.83446       43.66661        0.14224
C         52.23803       45.84418        1.18154
C         51.68202       43.48987        1.23640
C         52.38484       44.57732        1.75624
H         51.04226       47.51235       -3.49753
H         50.05377       44.89014       -3.82083
H         49.26769       44.11700       -1.82534
H         48.95062       45.78370       -1.41354
H         51.29019       47.01021       -0.35895
H         50.30284       42.80702       -0.24714
H         52.78496       46.68363        1.58983
H         51.79442       42.50740        1.67778
H         53.04272       44.43573        2.60412
N         52.44136       43.83206       -3.13927
C         53.83330       43.40969       -2.99253
C         54.83968       43.95874       -3.99957
O         55.99663       43.57169       -3.90891
C         53.76568       41.88324       -3.14586
C         52.38191       41.57040       -2.62453
C         51.57598       42.67612       -3.28392
H         54.14803       43.67417       -1.95747
H         53.75492       41.62014       -4.23007
H         54.59845       41.33414       -2.65783
H         52.01739       40.54556       -2.84675
H         52.37576       41.73076       -1.52223
H         51.44549       42.46975       -4.36980
H         50.59172       42.75337       -2.80025
N         54.49264       44.82485       -4.99622
C         55.43536       45.28073       -6.02325
C         56.65550       46.02314       -5.48301
O         57.55088       46.28641       -6.27457
C         54.70570       46.15788       -7.06785
C         54.22825       47.48887       -6.46812
C         53.31369       48.21447       -7.40010
O         53.68854       48.62130       -8.48796
O         52.05600       48.41533       -6.98379
H         53.51012       45.11411       -5.07643
H         55.80287       44.36846       -6.54278
H         53.83121       45.58190       -7.44503
H         55.37002       46.37281       -7.93340
H         55.08768       48.13838       -6.19680
H         53.65296       47.28979       -5.53950
N         56.76917       46.40284       -4.17635
C         57.93696       47.07824       -3.64542
H         58.72321       47.24024       -4.41278
H         57.63909       48.06478       -3.23436
H         58.37373       46.46387       -2.83026
H         56.00438       46.22058       -3.51283
Ca        50.31622       49.50126       -7.86760
O         49.31973       46.88033       -8.95344
H         49.86636       46.18452       -9.39722
H         48.81617       47.31053       -9.68958
O         52.75570       51.56882       -9.53906
H         52.55779       51.14679      -10.41110
H         53.68719       51.30242       -9.33765

Ca 1.0



