%chk=apoCaM-CA-Ng.loop4.water3.frame104.chk
%nprocshared=20
%mem=10GB
%nosave
#b3lyp/svp scf=(tight,noincore,xqc) Test 
#IOP(5/87=12) Density=Current Pop=(MK,readradii) iop(6/33=2) iop(6/42=6)

apoCaM-CA-Ng.loop4.water3.frame104 

   -3  1 
C         33.67908       69.51663       98.17727
C         33.61847       70.98562       97.89405
O         34.52978       71.69592       98.28849
H         34.59379       69.26957       98.75957
H         32.78777       69.20824       98.76064
H         33.70937       68.95714       97.21903
N         32.58223       71.50658       97.17339
C         32.46996       72.91425       96.79931
C         33.68759       73.35925       96.01583
O         34.33079       74.32483       96.37766
C         32.01625       73.82105       97.98376
C         32.59964       73.60036       99.36910
O         33.88631       73.83078       99.71204
O         31.84644       73.20945      100.24759
H         31.86252       70.85897       96.81682
H         31.64019       73.01013       96.06127
H         30.92888       73.60238       98.09727
H         32.07959       74.89111       97.69324
N         34.01414       72.68287       94.87668
C         35.13772       72.95570       93.98261
C         35.01006       74.33087       93.33143
O         34.57989       74.38270       92.18737
C         36.51539       72.67563       94.65782
C         37.72066       72.89233       93.70187
C         36.55312       71.25698       95.25874
C         37.72968       72.00378       92.45200
H         33.40683       71.89200       94.60858
H         35.03285       72.21367       93.15937
H         36.64695       73.37698       95.50642
H         38.65971       72.70108       94.26614
H         37.74522       73.95304       93.37373
H         35.76228       71.13661       96.02393
H         36.39105       70.48046       94.48374
H         37.52789       71.07406       95.75834
H         36.84874       72.20708       91.80987
H         38.63973       72.22122       91.85486
H         37.75141       70.92776       92.71932
N         35.39560       75.47794       93.96647
C         35.23540       76.80788       93.38823
C         36.54994       77.37524       92.84599
O         36.55392       77.67866       91.66038
C         34.53030       77.76227       94.37498
C         33.14648       77.28530       94.72300
O         32.30576       77.14586       93.84901
O         32.81825       77.03361       96.00364
H         35.82229       75.41217       94.89484
H         34.56121       76.74972       92.50279
H         34.43771       78.76733       93.90848
H         35.11111       77.87041       95.30816
N         37.70694       77.57694       93.54918
C         37.94154       77.22109       94.94278
C         39.35292       77.54463       95.41144
O         40.13800       78.03495       94.61157
H         38.48149       77.99289       93.01033
H         37.83576       76.12942       95.01806
H         37.23138       77.76122       95.58424
N         39.82109       77.28905       96.67256
C         39.12687       76.75431       97.84889
C         38.49784       75.34574       97.65075
O         37.20325       75.45392       97.14157
C         38.15739       77.79209       98.45348
C         37.61319       77.41003       99.80870
O         36.79959       78.26767      100.45118
O         37.90852       76.35181      100.34344
H         40.81884       77.50737       96.83004
H         39.90995       76.62969       98.62969
H         37.30654       77.97932       97.77331
H         38.71266       78.74608       98.58105
N         39.26400       74.46303       96.76120
C         40.71984       74.37285       96.94245
C         41.37961       74.61765       95.61287
O         40.68463       74.80681       94.62199
H         38.83202       73.51288       96.70331
H         41.00010       73.36365       97.31495
H         41.11392       75.10737       97.66638
N         42.73528       74.60844       95.50770
C         43.41411       74.74608       94.22661
C         44.07855       73.42469       93.93158
O         45.26639       73.36457       93.64766
C         44.37943       75.94710       94.25241
C         43.62128       77.26487       94.49402
C         44.52147       78.47478       94.55187
N         43.98342       79.69745       94.76647
O         45.73127       78.36397       94.41231
H         43.30376       74.43939       96.35254
H         42.68739       74.91149       93.40124
H         44.91339       76.01212       93.27846
H         45.12527       75.80027       95.06135
H         43.07508       77.20461       95.45944
H         42.88317       77.41344       93.67615
H         42.96585       79.80870       94.88856
H         44.58318       80.53439       94.81332
N         43.32068       72.29394       94.01798
C         43.83265       70.95294       93.77463
C         44.99816       70.59121       94.68659
O         45.67731       69.62301       94.36785
C         42.70651       69.87811       93.88958
C         41.60040       70.10321       92.84447
C         42.08955       69.81734       95.30289
H         42.32814       72.40732       94.26091
H         44.22576       70.94531       92.73347
H         43.15642       68.88354       93.67388
H         41.07116       71.06684       92.99620
H         42.03424       70.09390       91.82267
H         40.84607       69.29008       92.90703
H         41.32836       69.01027       95.34895
H         42.86513       69.59530       96.06528
H         41.58976       70.76888       95.58128
N         45.29110       71.28578       95.82933
C         46.45743       70.98304       96.64734
C         46.05431       70.41644       97.98799
O         46.47341       69.30971       98.29516
C         47.33068       72.23485       96.88119
C         47.77220       72.91429       95.61402
N         47.48946       74.22289       95.40941
O         48.40667       72.29087       94.77678
H         44.67200       72.04909       96.14035
H         47.09992       70.22653       96.14150
H         48.23814       71.92933       97.44615
H         46.77733       72.96945       97.50311
H         46.97194       74.76730       96.11549
H         47.79504       74.70025       94.54918
N         45.31318       71.15091       98.87246
C         45.12615       70.73267      100.25757
C         43.66282       70.66602      100.65184
O         42.82707       71.28177      100.00879
C         45.82972       71.76180      101.17348
C         47.25281       72.04349      100.74167
C         47.60088       73.32474      100.27422
C         48.23477       71.04101      100.78062
C         48.90224       73.59462       99.84498
C         49.53972       71.31508      100.35395
C         49.87587       72.59307       99.88126
O         51.12569       72.86940       99.45741
H         44.96512       72.08015       98.59388
H         45.58139       69.73225      100.42172
H         45.81614       71.42414      102.23197
H         45.25074       72.71169      101.11783
H         46.86212       74.11542      100.22685
H         47.98984       70.04900      101.13754
H         49.15140       74.58263       99.47760
H         50.28758       70.53328      100.38673
H         51.82941       72.20528       99.45895
N         43.31785       69.98897      101.78587
C         42.01393       70.01027      102.44695
C         40.83335       69.44921      101.66182
O         39.76176       69.41434      102.25259
C         41.65847       71.44184      102.91206
C         42.75105       72.08441      103.77400
C         42.30646       73.43679      104.25046
O         41.21813       73.55107      105.03628
O         42.92762       74.43759      103.93090
H         44.06463       69.47434      102.27784
H         42.10656       69.37984      103.36134
H         40.72344       71.39266      103.51384
H         41.46460       72.09042      102.03025
H         43.67975       72.19186      103.17593
H         42.96978       71.44661      104.65690
N         40.90326       68.99842      100.37338
C         39.71020       68.56473       99.64276
C         39.72991       67.07460       99.34585
O         38.75809       66.58819       98.78179
C         39.56060       69.36110       98.32559
C         39.57843       70.89501       98.45815
C         38.45947       71.45806       99.29025
O         37.63670       72.20335       98.78461
O         38.38480       71.19267      100.60602
H         41.80698       68.96716       99.88241
H         38.79492       68.73339      100.24799
H         38.61239       69.06380       97.82398
H         40.40180       69.08319       97.65594
H         39.50136       71.30751       97.42895
H         40.54489       71.23280       98.87979
N         40.77371       66.27328       99.70183
C         40.76514       64.85201       99.43454
H         41.70853       64.39272       99.79758
H         39.91107       64.37471       99.96115
H         40.67562       64.67099       98.34231
H         41.59940       66.66243      100.17773
Ca        35.70054       74.59089       98.61004
O         35.79756       72.95516      101.67970
H         35.37461       72.75559      102.55206
H         36.76909       72.87992      101.85080
O         34.70059       75.88814      101.72322
H         35.16266       75.89447      102.59874
H         34.77984       76.81755      101.39341
O         34.48075       77.48775       98.50181
H         34.88949       77.04550       97.71613
H         33.85244       76.81497       98.86624

Ca 1.0



