%chk=apoCaM-CA-Ng.loop1.water3.frame936.chk
%nprocshared=20
%mem=10GB
%nosave
#b3lyp/svp scf=(tight,noincore,xqc) Test 
#IOP(5/87=12) Density=Current Pop=(MK,readradii) iop(6/33=2) iop(6/42=6)

apoCaM-CA-Ng.loop1.water3.frame936 

   0  1 
C        104.07709       91.73913       61.95318
C        104.39247       90.95244       63.19077
O        104.12112       89.76093       63.23346
H        103.38641       92.57092       62.20683
H        105.01438       92.16163       61.53334
H        103.59804       91.09636       61.18468
N        104.97857       91.57287       64.25009
C        105.33444       90.88537       65.48656
C        104.11985       90.25448       66.15528
O        103.18464       90.95964       66.50514
C        106.05575       91.84777       66.46842
C        105.26735       93.07630       66.87618
O        105.73794       93.84923       67.69470
O        104.05403       93.33078       66.34630
H        105.19725       92.57697       64.15565
H        106.06076       90.07948       65.23900
H        107.00562       92.19080       66.00403
H        106.31419       91.27182       67.38446
N        104.06832       88.91158       66.38302
C        102.95507       88.31282       67.10549
C        102.96027       88.83550       68.52952
O        103.94601       88.63933       69.22847
C        103.04906       86.77382       67.10675
C        101.79967       86.13867       67.74543
C        101.88052       84.60766       67.72597
C        100.59653       83.93081       68.23753
N        100.30218       84.25332       69.63472
H        104.83945       88.31135       66.05238
H        102.01095       88.58218       66.57953
H        103.96622       86.44716       67.64534
H        103.11819       86.42339       66.05359
H        100.90210       86.46261       67.17364
H        101.70113       86.48824       68.79449
H        102.74930       84.27210       68.33333
H        102.03687       84.27210       66.67759
H        100.72944       82.83021       68.14402
H         99.73447       84.22507       67.59826
H         99.47474       83.69130       69.93561
H        101.11570       84.00911       70.24446
H        100.06087       85.26420       69.74178
N        101.88549       89.50585       69.02619
C        101.83504       89.98273       70.40686
C        100.41269       89.93882       70.95506
O         99.48271       89.80307       70.17333
C        102.51726       91.37087       70.51642
C        101.89446       92.46028       69.68168
O        100.91345       92.25459       68.98483
O        102.43645       93.69204       69.71069
H        101.06924       89.63480       68.40965
H        102.39060       89.24675       71.02868
H        103.57616       91.26392       70.19739
H        102.52169       91.73256       71.56064
N        100.12927       89.93985       72.29002
C        101.09368       90.02389       73.37632
C        101.22508       88.70813       74.09861
O        100.70799       87.70695       73.63264
H         99.14217       89.82280       72.56447
H        100.74955       90.81585       74.07576
H        102.11167       90.27992       73.04539
N        101.96229       88.64264       75.24064
C        102.18902       87.42013       76.01097
C        100.87571       86.86580       76.54993
O        100.12599       87.60777       77.16994
C        103.16102       87.73099       77.17450
C        103.61090       86.52743       77.96569
O        104.47104       86.69934       78.98683
O        103.23125       85.40063       77.68909
H        102.39650       89.51930       75.57116
H        102.68847       86.67121       75.35622
H        102.68913       88.46229       77.86618
H        104.07804       88.19576       76.75055
N        100.55517       85.54833       76.38407
C         99.31880       84.96217       76.88773
C         98.10861       85.30215       76.03774
O         97.01528       84.87483       76.38268
H        101.23357       84.92078       75.92668
H         99.16999       85.26006       77.94809
H         99.41044       83.85457       76.85964
N         98.23688       86.00542       74.87991
C         97.16355       86.27919       73.93602
C         96.99713       87.78319       73.77129
O         97.76547       88.53408       74.36338
C         97.54365       85.60669       72.59055
C         97.73782       84.09656       72.74822
O         96.54931       85.81960       71.62997
H         99.16585       86.32373       74.60286
H         96.19976       85.86417       74.30572
H         98.50970       86.05626       72.24901
H         97.00878       85.89942       70.75237
H         98.55380       83.87053       73.46582
H         96.79696       83.62489       73.10184
H         98.01065       83.65233       71.77018
N         95.99305       88.30610       73.00666
C         95.76433       89.74077       72.91871
C         94.95586       90.13491       74.12944
O         95.42956       90.93086       74.92677
C         95.10657       90.21317       71.57814
C         95.85847       89.70459       70.31627
C         95.11017       91.75589       71.55012
C         95.31783       88.37877       69.77864
H         95.27882       87.66656       72.63420
H         96.75126       90.25715       72.96521
H         94.04240       89.89603       71.51027
H         96.94899       89.65927       70.51575
H         95.70629       90.40661       69.46775
H         94.53809       92.17398       72.40393
H         96.15034       92.14808       71.58643
H         94.63048       92.12607       70.61839
H         95.35504       87.56881       70.51059
H         94.25719       88.50589       69.47229
H         95.90365       88.06802       68.88832
N         93.74833       89.54280       74.36089
C         92.98437       89.75914       75.58082
C         91.61851       90.33461       75.25489
O         91.23109       90.40083       74.09770
C         92.88207       88.41712       76.35792
C         94.27406       87.86907       76.70409
O         92.16077       88.59098       77.54979
H         93.38297       88.86366       73.67626
H         93.49890       90.50296       76.22747
H         92.35398       87.68132       75.70573
H         91.84783       87.69183       77.83305
H         94.17876       86.90837       77.25263
H         94.86555       87.67643       75.78605
H         94.82455       88.59173       77.34375
N         90.86071       90.82944       76.26902
C         89.54558       91.42817       76.10547
C         89.61704       92.91483       76.42012
O         89.06723       93.70176       75.66071
C         88.53365       90.68642       77.01757
C         87.09921       91.19895       76.82556
O         88.90655       90.81405       78.36637
H         91.25498       90.80024       77.21828
H         89.18142       91.31358       75.05957
H         88.55660       89.60986       76.72501
H         88.45685       90.08082       78.86260
H         87.01498       92.27036       77.10131
H         86.78447       91.07419       75.76795
H         86.40228       90.61832       77.46706
N         90.27734       93.37055       77.52288
C         90.25655       94.75339       77.97337
C         91.63731       95.38373       77.91445
O         92.56877       94.87251       78.52231
C         89.72953       94.77165       79.41910
C         88.26034       94.31940       79.47480
C         87.74135       94.09283       80.90182
C         87.89377       95.28675       81.85763
N         87.20595       96.48316       81.37400
H         90.78754       92.70287       78.11866
H         89.57092       95.36803       77.34950
H         89.80568       95.80058       79.83092
H         90.36075       94.09775       80.04142
H         88.14040       93.35117       78.94799
H         87.63417       95.06812       78.94336
H         88.29007       93.23232       81.34356
H         86.66821       93.80923       80.83403
H         88.97036       95.51236       82.01799
H         87.46644       94.99120       82.84127
H         87.28802       97.23241       82.09842
H         87.64986       96.83034       80.49416
H         86.19457       96.27757       81.20801
N         91.80876       96.55905       77.24105
C         93.05008       97.32515       77.23897
C         94.20095       96.57002       76.57902
O         95.18992       96.35700       77.26581
C         92.81511       98.72950       76.62229
C         94.04530       99.64347       76.71225
C         93.72221      101.01931       76.19926
O         93.82910      102.08557       77.01520
O         93.36233      101.17885       75.04340
H         90.98835       96.97185       76.77018
H         93.32337       97.51476       78.30297
H         91.98873       99.21120       77.19218
H         92.49494       98.66600       75.56454
H         94.88084       99.22301       76.11300
H         94.37054       99.72080       77.77229
N         94.21419       96.13677       75.28274
C         93.13408       96.25092       74.32515
H         92.21560       96.69039       74.74248
H         93.47026       96.86721       73.46474
H         92.87146       95.23784       73.95639
H         95.07053       95.67231       74.94140
Ca       102.66789       94.97782       67.00984
O        101.03432       92.84209       64.87698
H        100.48135       92.18907       65.37544
H        100.77351       92.71698       63.92992
O        104.20784       97.50766       67.16443
H        103.57598       97.49001       66.40171
H        103.64366       97.33106       67.95928
O         99.16201       94.65664       67.32839
H         99.73451       95.42290       67.58442
H         98.28253       94.85714       67.73696

Ca 1.0



