%chk=apoCaM-CA-Ng.loop3.water2.frame678.chk
%nprocshared=20
%mem=10GB
%nosave
#b3lyp/svp scf=(tight,noincore,xqc) Test 
#IOP(5/87=12) Density=Current Pop=(MK,readradii) iop(6/33=2) iop(6/42=6)

apoCaM-CA-Ng.loop3.water2.frame678 

   0  1 
C        -28.70676       70.31070       88.56620
C        -29.75606       71.27271       89.04141
O        -30.78636       71.39183       88.39376
H        -27.83299       70.29075       89.25172
H        -29.13988       69.28842       88.52922
H        -28.36001       70.59826       87.55307
N        -29.57979       71.96812       90.19879
C        -30.61627       72.82865       90.76397
C        -30.81166       74.08395       89.90521
O        -29.96132       74.36130       89.06959
C        -30.21601       73.16819       92.22724
C        -31.31270       73.59391       93.16537
O        -31.00067       73.83412       94.45086
O        -32.47999       73.64145       92.82049
H        -28.70940       71.81051       90.73130
H        -31.53666       72.22642       90.79713
H        -29.39193       73.91542       92.22045
H        -29.82262       72.24466       92.70201
N        -31.87954       74.91583       90.09011
C        -31.99754       76.22859       89.46143
C        -31.88530       77.25448       90.57443
O        -30.96865       78.06336       90.57649
C        -33.34852       76.44189       88.72354
C        -33.71670       75.40126       87.65981
C        -35.02862       75.83118       86.96918
C        -35.56009       74.77162       85.99745
N        -36.76921       75.24774       85.32058
H        -32.60424       74.65039       90.76314
H        -31.17506       76.39059       88.73000
H        -33.30927       77.44875       88.24975
H        -34.19228       76.44727       89.44346
H        -33.85778       74.41801       88.15976
H        -32.91055       75.31232       86.90095
H        -34.84759       76.78114       86.41841
H        -35.81590       76.01595       87.73417
H        -35.79877       73.84574       86.56716
H        -34.78640       74.53167       85.23656
H        -37.13830       74.49177       84.69979
H        -37.50656       75.49936       86.01902
H        -36.54493       76.08444       84.73377
N        -32.81529       77.25080       91.57074
C        -32.83841       78.16928       92.70138
C        -31.70884       77.92543       93.72715
O        -31.60931       78.71144       94.65868
C        -34.23777       78.11218       93.37156
C        -34.60744       76.71751       93.78027
O        -33.71428       76.03682       94.48980
O        -35.65970       76.19920       93.44253
H        -33.58295       76.57082       91.49428
H        -32.72384       79.20570       92.31548
H        -35.01535       78.49249       92.67437
H        -34.23310       78.76660       94.26931
N        -30.80986       76.89951       93.61979
C        -29.65052       76.74332       94.49857
C        -29.90079       76.32317       95.94823
O        -28.91530       76.25658       96.66945
H        -30.87462       76.25566       92.82128
H        -29.08472       77.70127       94.49623
H        -28.97955       75.97069       94.06301
N        -31.13393       76.01890       96.45914
C        -31.36758       75.67279       97.86553
C        -31.99801       74.24531       98.04575
O        -33.38866       74.23310       97.85470
C        -32.25135       76.76687       98.50482
C        -31.59529       78.12326       98.42373
N        -32.17183       79.13199       97.72873
O        -30.53062       78.31247       98.99295
H        -31.94055       76.07772       95.84682
H        -30.39486       75.65307       98.40506
H        -32.44922       76.54298       99.57292
H        -33.22901       76.79144       97.97489
H        -33.06642       78.99400       97.23611
H        -31.71807       80.05602       97.67612
N        -31.67609       73.69739       99.37955
C        -32.55241       72.60466       99.83837
C        -32.53568       71.39964       98.92798
O        -31.46487       70.87754       98.65214
H        -31.74978       74.45083      100.10136
H        -33.59126       72.97685       99.99249
H        -32.18613       72.27323      100.83305
N        -33.70727       70.85799       98.48390
C        -33.76381       69.63160       97.68654
C        -33.22349       69.86081       96.28164
O        -32.86055       70.98042       95.95707
C        -35.21682       69.09638       97.61509
C        -35.82122       68.87831       98.98649
C        -35.22390       68.00105       99.91018
C        -36.99607       69.55751       99.35309
C        -35.78430       67.82070      101.17923
C        -37.55754       69.37041      100.61954
C        -36.95332       68.50687      101.53820
O        -37.50315       68.34584      102.75894
H        -34.59172       71.29443       98.78684
H        -33.14321       68.85855       98.18931
H        -35.23819       68.12439       97.07855
H        -35.83752       69.81440       97.03487
H        -34.32190       67.46038       99.65471
H        -37.47981       70.23375       98.65941
H        -35.30869       67.14876      101.88283
H        -38.46263       69.90074      100.88783
H        -37.11279       67.76511      103.42762
N        -33.15000       68.81842       95.39430
C        -32.67603       68.91654       94.01202
C        -33.60918       69.78376       93.17422
O        -33.89259       70.91250       93.55416
C        -31.19311       69.38630       93.92087
C        -30.66321       69.39754       92.45695
C        -30.28336       68.52700       94.81783
C        -30.61620       68.03500       91.75108
H        -33.43871       67.88366       95.71651
H        -32.70330       67.88766       93.59291
H        -31.12235       70.43180       94.28896
H        -29.63137       69.80956       92.45547
H        -31.29101       70.07918       91.84769
H        -30.32895       67.45581       94.53138
H        -29.23183       68.87708       94.74497
H        -30.59109       68.60926       95.88107
H        -29.94267       67.33081       92.27897
H        -31.61847       67.57580       91.66392
H        -30.22557       68.17255       90.72118
N        -34.07697       69.33343       91.97538
C        -34.96459       70.10651       91.11420
C        -36.16723       69.31192       90.62188
O        -37.00231       69.90262       89.95479
C        -34.17587       70.63029       89.90596
O        -33.63191       69.57587       89.15461
H        -33.72389       68.43021       91.62762
H        -35.35384       70.99245       91.66171
H        -33.38086       71.31149       90.25901
H        -34.82334       71.24558       89.24613
H        -32.70957       69.42461       89.49155
N        -36.30720       67.96896       90.84748
C        -37.40443       67.20741       90.26233
C        -38.73848       67.58517       90.89062
O        -38.73243       68.11939       91.99166
C        -37.15131       65.70885       90.45709
H        -35.59481       67.45609       91.37935
H        -37.40375       67.41666       89.17224
H        -37.94482       65.10974       89.98172
H        -36.18372       65.42546       89.99065
H        -37.11475       65.45721       91.53881
N        -39.94312       67.34236       90.29146
C        -40.11142       66.90277       88.90961
C        -41.47311       66.24130       88.71749
O        -42.46691       66.86798       89.05843
C        -40.02927       68.12626       87.98567
H        -40.78577       67.65622       90.79868
H        -39.29938       66.21976       88.61480
H        -40.82462       68.86230       88.23289
H        -39.04845       68.63463       88.08594
H        -40.14844       67.81313       86.92602
N        -41.64956       65.02123       88.12253
C        -40.57507       64.19477       87.57684
C        -39.74625       63.49851       88.64670
O        -38.70552       62.95280       88.30549
C        -41.13021       63.13228       86.59596
C        -42.02923       62.06641       87.26349
C        -42.54941       61.04312       86.28930
O        -43.34318       60.05258       86.73802
O        -42.26704       61.09302       85.10189
H        -42.62517       64.72569       87.96920
H        -39.92160       64.85715       86.96695
H        -40.27160       62.61533       86.11191
H        -41.70503       63.65452       85.79957
H        -42.90489       62.54563       87.74517
H        -41.45222       61.52713       88.04420
N        -40.17059       63.40060       89.93863
C        -39.42720       62.65158       90.93066
H        -38.42471       63.09827       91.08573
H        -39.97377       62.65389       91.89695
H        -39.30768       61.59772       90.59728
H        -41.06549       63.82147       90.22555
Ca       -33.84421       74.18040       95.66009
O        -36.06952       72.74965       96.79197
H        -36.23656       73.02747       97.72720
H        -36.96933       72.67522       96.38717
O        -36.36053       72.66204       93.58831
H        -37.14007       73.22793       93.36060
H        -36.74569       71.76605       93.76144

Ca 1.0



