%chk=apoCaM-CA-Ng.loop3.water3.frame244.chk
%nprocshared=20
%mem=10GB
%nosave
#b3lyp/svp scf=(tight,noincore,xqc) Test 
#IOP(5/87=12) Density=Current Pop=(MK,readradii) iop(6/33=2) iop(6/42=6)

apoCaM-CA-Ng.loop3.water3.frame244 

   0  1 
C         27.10407       45.93275      101.72088
C         27.30890       47.35605      102.14952
O         27.11373       48.24435      101.33343
H         26.05299       45.79409      101.38994
H         27.78242       45.69477      100.87628
H         27.30954       45.22476      102.55049
N         27.70293       47.65028      103.42404
C         27.89324       49.00840      103.92938
C         29.01257       49.74517      103.19849
O         29.05387       50.96593      103.27383
C         26.56240       49.80619      103.90514
C         25.45974       49.16829      104.71379
O         25.65348       48.01244      105.37972
O         24.37077       49.71560      104.77622
H         27.86663       46.87413      104.08325
H         28.20382       48.95555      104.99697
H         26.20773       49.93827      102.86266
H         26.73777       50.81763      104.33224
N         30.00542       49.06973      102.54376
C         31.09565       49.73738      101.83815
C         31.11801       49.27624      100.39805
O         32.16071       48.90016       99.89165
C         32.43238       49.53848      102.61235
C         32.84487       48.09186      103.00705
C         33.28518       47.13624      101.87949
C         34.54389       47.58644      101.09965
N         35.74082       47.61886      101.94030
H         30.00202       48.03944      102.54779
H         30.91374       50.83379      101.79830
H         32.29193       50.07336      103.57748
H         33.26362       50.05218      102.08530
H         32.00895       47.61785      103.56210
H         33.68254       48.16587      103.72967
H         32.43831       46.97010      101.18633
H         33.50033       46.14098      102.32414
H         34.40561       48.58318      100.63486
H         34.71252       46.85880      100.27487
H         35.65257       48.34631      102.68401
H         35.90362       46.67961      102.36988
H         36.56486       47.86272      101.34430
N         29.97334       49.27052       99.66479
C         29.90795       48.67732       98.33976
C         29.54460       49.73895       97.32913
O         28.51067       50.37665       97.47582
C         28.90514       47.51023       98.38170
C         28.93822       46.65081       97.15426
O         28.13237       45.57473       97.07995
O         29.71142       46.89219       96.24132
H         29.10348       49.63647      100.08196
H         30.89315       48.24050       98.06339
H         27.87655       47.89536       98.55157
H         29.17565       46.84697       99.23110
N         30.37869       50.00421       96.28350
C         30.14295       51.08418       95.34431
C         28.83895       50.95667       94.59402
O         28.31142       51.98564       94.19604
H         31.24159       49.45039       96.16829
H         30.97655       51.14560       94.61117
H         30.13577       52.04005       95.91242
N         28.28284       49.74165       94.31218
C         27.02629       49.60414       93.57980
C         25.98469       48.76650       94.31441
O         24.88376       48.65995       93.79266
C         27.31565       49.07018       92.16475
C         28.02659       47.71426       92.13376
N         28.43529       47.37973       90.77548
O         27.19118       46.71239       92.62828
H         28.78845       48.88565       94.58547
H         26.55807       50.60233       93.43477
H         27.97954       49.81393       91.67270
H         26.37624       49.01378       91.57256
H         29.08085       48.12448       90.42794
H         28.99972       46.50397       90.81643
N         26.22460       48.17149       95.52243
C         25.22723       47.38958       96.24032
C         24.86419       46.10045       95.52709
O         24.40195       46.14987       94.39630
H         27.12952       48.30795       95.98803
H         24.31322       48.00590       96.38310
H         25.61917       47.14499       97.25166
N         24.98051       44.89624       96.16101
C         24.52177       43.65295       95.54144
C         25.40388       43.24652       94.37089
O         26.42518       43.87094       94.13530
C         24.42847       42.51059       96.57899
C         23.57435       42.89182       97.76969
C         22.23837       43.30126       97.60272
C         24.11650       42.84665       99.06572
C         21.46861       43.67237       98.70949
C         23.34172       43.20879      100.17108
C         22.01547       43.62761       99.99572
O         21.25962       43.98794      101.05246
H         25.31981       44.87896       97.13498
H         23.49632       43.83177       95.15051
H         25.45258       42.24209       96.91889
H         23.98069       41.61207       96.10276
H         21.79122       43.34516       96.61834
H         25.13979       42.52966       99.22349
H         20.44542       43.99690       98.56636
H         23.77489       43.16611      101.16240
H         21.60055       43.97141      101.95819
N         25.03105       42.21507       93.56265
C         25.75929       41.82156       92.36109
C         24.95656       42.33942       91.17401
O         25.51602       43.08771       90.38414
C         26.02838       40.28087       92.31906
C         27.02483       39.77893       93.40512
C         26.63935       39.87671       90.96092
C         26.58283       39.93813       94.85494
H         24.13780       41.74083       93.76177
H         26.75504       42.31969       92.31107
H         25.06203       39.74051       92.42726
H         28.00975       40.28177       93.27801
H         27.17935       38.68739       93.25081
H         27.61502       40.38241       90.79926
H         26.79788       38.77750       90.91588
H         25.97299       40.13436       90.12255
H         25.60355       39.44387       95.02201
H         27.33992       39.46527       95.51675
H         26.53429       40.99968       95.14273
N         23.62306       42.07011       91.02910
C         22.82139       42.69800       89.97737
C         23.12004       42.13566       88.59722
O         22.80160       42.79416       87.61778
C         21.31976       42.57715       90.27358
O         21.01668       43.13971       91.52272
H         23.15136       41.48999       91.73855
H         23.06518       43.78542       89.97760
H         21.02294       41.50701       90.28638
H         20.71848       43.07826       89.48060
H         21.05780       44.12568       91.40986
N         23.73018       40.92542       88.44589
C         24.14923       40.35180       87.17185
C         25.16244       41.26084       86.49718
O         25.05602       41.54917       85.31222
C         22.94631       40.00344       86.28509
H         23.94856       40.37523       89.28635
H         24.67642       39.39883       87.40186
H         22.37590       40.91076       85.99904
H         23.28937       39.49542       85.35896
H         22.26776       39.31384       86.83082
N         26.16385       41.78721       87.24984
C         27.17530       42.71278       86.76408
C         28.50593       42.40317       87.43912
O         28.57080       41.44187       88.18352
C         26.71930       44.13474       87.12381
H         26.14521       41.60128       88.26363
H         27.27809       42.65855       85.65769
H         26.61926       44.25177       88.22332
H         27.43112       44.89810       86.74829
H         25.73405       44.34204       86.65357
N         29.58273       43.21848       87.25801
C         30.84783       43.21588       88.00276
C         31.72125       41.97506       87.81712
O         32.76693       42.10841       87.19464
C         30.67483       43.69777       89.47461
C         30.09192       42.71381       90.50677
C         29.87830       43.37907       91.82744
O         29.06546       44.28055       91.92017
O         30.53983       42.95999       92.92231
H         29.47816       43.98283       86.57289
H         31.43052       44.05014       87.54396
H         30.04302       44.61358       89.44089
H         31.67496       44.00037       89.85738
H         30.79725       41.87209       90.65384
H         29.10284       42.33618       90.21094
N         31.41085       40.75385       88.33876
C         32.28409       39.61092       88.18956
H         33.27179       39.82914       88.64923
H         31.84433       38.72995       88.70491
H         32.41518       39.36873       87.11455
H         30.55685       40.60633       88.88220
Ca        28.47807       45.67984       94.18127
O         31.38704       44.41497       96.02382
H         32.37559       44.43324       95.97635
H         31.18278       44.50538       96.98863
O         28.97861       42.49046       95.63112
H         28.50718       42.23162       96.46235
H         29.74824       41.86950       95.57864
O         31.19010       46.65389       93.34193
H         31.97947       46.05674       93.36544
H         31.54234       47.52444       93.02884

Ca 1.0



