%chk=apoCaM-CA-Ng.loop4.water6.frame839.chk
%nprocshared=20
%mem=10GB
%nosave
#b3lyp/svp scf=(tight,noincore,xqc) Test 
#IOP(5/87=12) Density=Current Pop=(MK,readradii) iop(6/33=2) iop(6/42=6)

apoCaM-CA-Ng.loop4.water6.frame839 

   -3  1 
C         53.15783       70.82225       64.48665
C         53.82772       69.60927       63.91157
O         54.89644       69.24437       64.38037
H         52.16446       70.54183       64.89446
H         53.76899       71.25685       65.30759
H         53.02670       71.59047       63.69633
N         53.23801       68.91974       62.89029
C         53.80935       67.72393       62.27053
C         53.95329       66.56075       63.25110
O         54.62155       65.59383       62.91016
C         55.15455       68.03862       61.57174
C         55.00770       69.08714       60.50558
O         54.23872       68.91632       59.57274
O         55.75393       70.20462       60.55386
H         52.33274       69.25866       62.52982
H         53.12121       67.36985       61.47056
H         55.52935       67.11821       61.07409
H         55.92113       68.35825       62.30746
N         53.32006       66.55163       64.46291
C         53.46776       65.45926       65.43014
C         53.01969       64.11785       64.84055
O         52.29792       64.13998       63.85218
C         52.63136       65.74254       66.72639
C         51.10088       65.82874       66.42467
C         53.13710       66.99756       67.46080
C         50.21946       65.80974       67.67358
H         52.71885       67.34839       64.70524
H         54.54890       65.40037       65.67499
H         52.79667       64.89489       67.41035
H         50.78300       64.94706       65.83106
H         50.86557       66.73679       65.82984
H         54.21919       66.89419       67.68472
H         52.98316       67.91828       66.86149
H         52.61227       67.12706       68.42888
H         49.15123       65.83290       67.36625
H         50.39484       64.87350       68.24549
H         50.40492       66.68548       68.32483
N         53.31626       62.89774       65.38966
C         54.26096       62.60884       66.47118
C         55.20278       61.50208       66.00586
O         54.71300       60.49118       65.51668
C         53.51774       62.09973       67.72455
C         54.48550       61.83218       68.85131
O         54.59774       60.59331       69.36615
O         55.18087       62.73354       69.29466
H         52.84638       62.08108       64.96681
H         54.83045       63.51266       66.77085
H         52.95596       61.17211       67.48362
H         52.78514       62.84751       68.08100
N         56.55038       61.56971       66.19445
C         57.40663       60.46122       65.79074
C         58.83374       60.64404       66.23583
O         59.34723       59.78978       66.94558
H         56.95524       62.39324       66.66602
H         57.37556       60.35960       64.68475
H         57.02370       59.51771       66.24191
N         59.53948       61.74170       65.85418
C         60.92644       61.97838       66.24433
C         61.12077       61.91039       67.75064
O         62.08273       61.28727       68.18078
C         61.46469       63.29018       65.63125
C         60.65079       64.52030       65.94760
O         60.11789       65.14144       65.04209
O         60.52112       64.96449       67.20929
H         59.06168       62.43844       65.26266
H         61.55831       61.16922       65.81055
H         61.46927       63.15728       64.52626
H         62.51794       63.44644       65.95155
N         60.21209       62.43854       68.61900
C         60.34735       62.28659       70.05771
C         61.49010       63.08106       70.65345
O         61.72002       62.91991       71.84245
H         59.36165       62.89177       68.25411
H         60.48189       61.20604       70.28941
H         59.41428       62.62219       70.55937
N         62.22321       63.98212       69.92681
C         63.31829       64.77465       70.47817
C         62.86965       65.71065       71.59972
O         63.74048       66.27640       72.24664
C         64.49700       63.85318       70.89935
C         65.12370       63.10023       69.70328
C         65.89016       63.98490       68.73746
N         66.47986       63.44045       67.64839
O         66.00401       65.18546       68.93867
H         62.00772       64.13241       68.93584
H         63.70458       65.45119       69.68911
H         64.14456       63.11312       71.64561
H         65.30540       64.44096       71.38605
H         64.33140       62.54752       69.15553
H         65.84704       62.35597       70.09916
H         66.40642       62.43061       67.45858
H         67.01423       64.03101       66.99300
N         61.54933       65.99905       71.83546
C         61.11614       66.92808       72.88271
C         60.48755       68.20139       72.32807
O         60.29143       69.11402       73.12023
C         60.13749       66.24855       73.88425
C         58.82701       65.79174       73.21382
C         60.80045       65.06832       74.60261
H         60.82811       65.57519       71.23797
H         62.00243       67.27183       73.46008
H         59.87111       66.99594       74.66512
H         59.01024       65.00810       72.44994
H         58.13562       65.37238       73.97483
H         58.31262       66.64883       72.72980
H         61.71498       65.40722       75.13317
H         60.10273       64.63886       75.35326
H         61.07617       64.27125       73.88545
N         60.11294       68.34405       71.02000
C         59.50212       69.56954       70.50593
C         60.28384       70.09745       69.31280
O         61.10459       69.37787       68.75730
C         58.03219       69.27663       70.13814
C         57.27217       70.49476       69.67301
N         56.73557       70.54222       68.43106
O         57.13553       71.44646       70.42792
H         60.22313       67.55534       70.36695
H         59.51705       70.35681       71.29137
H         57.51122       68.87788       71.03608
H         58.01027       68.48793       69.35511
H         56.83653       69.75003       67.77999
H         56.21806       71.37624       68.11628
N         60.10960       71.38565       68.89741
C         60.84844       71.95711       67.77198
C         60.82162       73.48969       67.81727
O         60.12522       74.05394       68.64926
C         60.23779       71.41938       66.45357
C         61.12745       71.58490       65.24907
C         60.78728       72.46578       64.20979
C         62.29877       70.81546       65.14241
C         61.61406       72.58215       63.08704
C         63.11460       70.92153       64.01321
C         62.77858       71.80562       62.98347
O         63.57748       71.89615       61.90104
H         59.48198       71.98021       69.45537
H         61.91157       71.64869       67.88863
H         59.25270       71.91579       66.30636
H         60.03228       70.32959       66.53057
H         59.88842       73.06509       64.26934
H         62.56834       70.11670       65.92524
H         61.34552       73.27028       62.29571
H         64.00610       70.31113       63.93668
H         63.38147       72.49194       61.16413
N         61.61962       74.23316       66.99929
C         61.70216       75.68951       67.07682
C         61.56027       76.29050       65.68084
O         62.55639       76.74446       65.13393
C         63.04545       76.05356       67.75134
C         63.15994       77.55979       68.04979
C         64.43784       77.87098       68.77185
O         65.51503       77.64395       68.24434
O         64.40065       78.41510       70.00332
H         62.26751       73.74818       66.36048
H         60.92092       76.11073       67.74246
H         63.89784       75.70916       67.12458
H         63.09675       75.51586       68.72489
H         62.30193       77.87014       68.68588
H         63.13043       78.15559       67.11476
N         60.38352       76.32768       64.99158
C         59.08105       75.90556       65.49500
C         58.60646       76.83038       66.60285
O         58.59770       78.03805       66.40391
C         58.04870       75.94564       64.34652
C         56.69102       75.37186       64.77864
C         55.71347       75.39432       63.64414
O         54.65373       75.98898       63.75590
O         55.99261       74.73658       62.50477
H         60.42433       76.70401       64.03001
H         59.14222       74.85083       65.83877
H         58.43524       75.32939       63.50465
H         57.92191       76.99072       63.98248
H         56.27596       75.95516       65.62898
H         56.82712       74.31859       65.10677
N         58.13289       76.32004       67.77322
C         57.60521       77.13770       68.84737
H         56.53878       76.87565       69.01482
H         58.17467       76.93805       69.77810
H         57.66313       78.22399       68.62436
H         58.10389       75.29895       67.90007
Ca        54.45118       74.59634       60.86642
O         55.78303       71.93670       63.03874
H         56.76001       71.99584       63.18452
H         55.65248       72.21948       62.09930
O         52.02836       76.13966       61.62691
H         52.34141       76.70118       62.37971
H         51.55593       76.76909       61.02661
O         55.29703       77.06891       59.40079
H         54.33437       77.29465       59.34591
H         55.44989       76.44853       58.64423
O         52.79865       71.90055       60.63188
H         53.62039       71.88010       60.08015
H         52.12968       71.40495       60.09629
O         53.02348       74.48228       58.17591
H         53.79292       74.70922       57.59566
H         52.88530       73.51199       58.03584
O         56.26744       73.11373       58.99754
H         56.09315       73.15368       58.02384
H         56.88410       72.34769       59.11013

Ca 1.0



