%chk=apoCaM-CA-Ng.loop1.water3.frame1197.chk
%nprocshared=20
%mem=10GB
%nosave
#b3lyp/svp scf=(tight,noincore,xqc) Test 
#IOP(5/87=12) Density=Current Pop=(MK,readradii) iop(6/33=2) iop(6/42=6)

apoCaM-CA-Ng.loop1.water3.frame1197 

   0  1 
C         25.96059       90.90177      100.29013
C         26.03664       91.99970      101.30259
O         25.04651       92.69358      101.48497
H         24.96535       90.90179       99.79317
H         26.74419       91.04308       99.51783
H         26.10374       89.92735      100.79966
N         27.19742       92.23737      101.98400
C         27.31181       93.28796      102.99009
C         28.03047       94.50104      102.44003
O         28.96046       95.00723      103.05433
C         27.88577       92.75148      104.32208
C         29.30860       92.24790      104.26426
O         29.95635       92.27195      103.22938
O         29.88186       91.77643      105.38721
H         28.02674       91.67302      101.75039
H         26.30557       93.66199      103.22859
H         27.23417       91.92658      104.68098
H         27.84555       93.56845      105.07638
N         27.58150       95.06292      101.28421
C         28.08256       96.32954      100.77485
C         27.72121       97.43586      101.76309
O         28.63527       98.12324      102.19516
C         27.59493       96.64106       99.33317
C         27.79220       95.47838       98.33040
C         29.23586       94.94936       98.24379
C         29.36367       93.70566       97.34515
N         29.01989       93.97470       95.94902
H         26.82719       94.58459      100.77525
H         29.19083       96.26557      100.69728
H         28.15029       97.53479       98.97127
H         26.52063       96.90561       99.31015
H         27.46348       95.83742       97.33263
H         27.12644       94.63717       98.61121
H         29.56905       94.62253       99.25033
H         29.91627       95.75390       97.89086
H         28.71451       92.89119       97.73935
H         30.41706       93.35054       97.39376
H         29.61602       94.74725       95.57396
H         29.19415       93.10946       95.38816
H         28.00899       94.22023       95.85696
N         26.45829       97.63911      102.26683
C         25.25007       96.88541      101.91691
C         24.85429       95.92824      103.04021
O         25.50307       95.90461      104.07644
C         24.10554       97.85855      101.55770
C         23.65384       98.63270      102.76352
O         23.17083       97.96116      103.82571
O         23.74337       99.84532      102.79225
H         26.36074       98.35584      103.00357
H         25.42101       96.26024      101.03108
H         23.23236       97.29464      101.16729
H         24.44882       98.54558      100.75229
N         23.80392       95.07519      102.87040
C         23.40485       94.05996      103.83774
C         22.78156       94.58790      105.11399
O         22.65076       95.78595      105.29814
H         23.30220       95.08837      101.96936
H         24.26969       93.41537      104.09087
H         22.63840       93.41466      103.35651
N         22.31025       93.68619      106.02338
C         21.57646       94.03518      107.24799
C         20.70296       92.86263      107.71483
O         20.88692       91.75541      107.22830
C         22.57211       94.36490      108.38974
C         23.31327       95.64631      108.19796
O         22.70337       96.70058      108.12221
O         24.65802       95.64551      108.18002
H         22.41453       92.69376      105.76561
H         20.88247       94.87018      107.02070
H         23.29040       93.52226      108.49815
H         22.06309       94.45855      109.36140
N         19.73290       92.97813      108.67461
C         19.24441       94.21030      109.27924
C         18.42250       94.99173      108.29337
O         17.45677       94.44023      107.78479
H         19.25949       92.11149      108.97460
H         20.04890       94.81293      109.73002
H         18.55304       93.94481      110.10790
N         18.73174       96.28270      107.98100
C         17.95284       97.06583      107.02723
C         18.79228       97.35905      105.79712
O         20.00826       97.25919      105.84127
C         17.36990       98.32823      107.71851
C         16.48813       99.18694      106.80502
O         18.39913       99.13314      108.22917
H         19.55803       96.71894      108.41808
H         17.09006       96.46244      106.67051
H         16.70808       97.98556      108.55023
H         18.55036       98.86201      109.17202
H         17.07848       99.61992      105.97013
H         15.64963       98.58466      106.39559
H         16.05948      100.03278      107.38398
N         18.15697       97.61329      104.61992
C         18.78555       97.84347      103.32871
C         19.63387       99.09824      103.35101
O         20.66800       99.10752      103.99786
C         19.60328       96.62398      102.77490
C         18.81596       95.28255      102.81960
C         20.00296       96.91393      101.31325
C         19.16535       94.42540      104.03959
H         17.12640       97.63228      104.62438
H         17.94589       98.00485      102.61356
H         20.55973       96.49340      103.32933
H         19.10417       94.63903      101.95964
H         17.72248       95.46466      102.73619
H         19.10140       97.03500      100.67497
H         20.62140       97.83178      101.24038
H         20.61497       96.07833      100.90991
H         18.59837       93.47223      104.00470
H         20.24646       94.17144      104.00512
H         18.94740       94.92369      104.99725
N         19.27860      100.18710      102.61971
C         20.13648      101.35344      102.46272
C         19.54394      102.62266      103.04858
O         20.21283      103.63746      102.94051
C         20.52591      101.53025      100.96971
C         19.32486      101.64653      100.02529
O         21.30917      100.44044      100.55552
H         18.37759      100.16875      102.11909
H         21.09395      101.21869      103.01601
H         21.11745      102.47090      100.85848
H         22.25370      100.66712      100.76282
H         18.74016      100.70304      100.00599
H         18.66305      102.48407      100.32712
H         19.68436      101.82740       98.99054
N         18.34484      102.66427      103.71589
C         17.87588      103.90287      104.34518
C         18.87186      104.27971      105.43924
O         18.92566      103.60802      106.45974
C         16.43284      103.74433      104.88145
C         15.89430      105.05598      105.46361
O         15.60116      103.34223      103.82247
H         17.77255      101.81262      103.79320
H         17.85323      104.68644      103.55466
H         16.43595      102.95802      105.67322
H         14.79341      102.92989      104.22696
H         15.88283      105.84698      104.68328
H         14.85550      104.90458      105.82743
H         16.51569      105.39577      106.31779
N         19.81024      105.24191      105.18546
C         21.02220      105.48191      105.97220
C         21.88220      104.22607      106.08571
O         21.41875      103.14006      105.76624
C         20.75215      106.12211      107.34563
C         20.07674      107.49678      107.19749
C         20.04335      108.29920      108.50780
C         19.21483      107.64013      109.61805
N         19.20716      108.47755      110.81797
H         19.73916      105.76146      104.29750
H         21.63577      106.20637      105.38902
H         21.73339      106.27927      107.84493
H         20.14256      105.44487      107.97922
H         19.05068      107.37691      106.78706
H         20.66853      108.10435      106.47734
H         19.60726      109.29758      108.28488
H         21.08550      108.45324      108.86578
H         19.64343      106.64865      109.87792
H         18.17103      107.49479      109.26268
H         18.63276      108.01352      111.55782
H         20.18261      108.60148      111.17577
H         18.79136      109.41308      110.60314
N         23.19278      104.31585      106.45525
C         24.08451      103.15649      106.49228
C         24.01614      102.35883      105.19454
O         23.73739      101.17664      105.29405
C         25.55386      103.53662      106.78534
C         25.77054      104.08624      108.20011
C         27.21726      104.44228      108.40018
O         27.94954      103.80643      109.33437
O         27.73647      105.30980      107.71518
H         23.58030      105.25055      106.65644
H         23.75100      102.47772      107.31222
H         25.92122      104.26746      106.03840
H         26.17846      102.61871      106.69448
H         25.47680      103.30734      108.93815
H         25.15413      104.99128      108.37651
N         24.22012      102.86547      103.94321
C         24.50118      104.24065      103.60156
H         25.47166      104.28624      103.06652
H         23.70069      104.60941      102.92656
H         24.54273      104.91559      104.46901
H         24.14408      102.22050      103.14459
Ca        22.65734       98.75720      105.87583
O         25.58167       97.96504      106.38760
H         24.89113       97.31928      106.09628
H         26.05814       97.50054      107.11987
O         23.41796       99.57853      108.86812
H         23.67095       98.83706      109.47365
H         24.27346       99.87375      108.46666
O         20.64636      100.34812      107.27966
H         21.41138      100.91709      107.01945
H         20.06902      100.31947      106.47537

Ca 1.0



