%chk=apoCaM-CA-Ng.loop1.water2.frame128.chk
%nprocshared=20
%mem=10GB
%nosave
#b3lyp/svp scf=(tight,noincore,xqc) Test 
#IOP(5/87=12) Density=Current Pop=(MK,readradii) iop(6/33=2) iop(6/42=6)

apoCaM-CA-Ng.loop1.water2.frame128 

   0  1 
C         42.90917       50.19070      -12.34709
C         42.48481       48.88037      -11.75180
O         43.30741       48.19354      -11.16335
H         43.98930       50.37745      -12.16807
H         42.72494       50.17855      -13.44218
H         42.32253       51.01552      -11.89030
N         41.19268       48.47274      -11.87823
C         40.67814       47.21481      -11.34556
C         40.16854       46.29629      -12.45602
O         39.61909       45.25298      -12.13430
C         39.58731       47.49288      -10.28237
C         38.33889       48.15205      -10.80988
O         37.15629       47.51431      -10.71718
O         38.37735       49.27555      -11.28411
H         40.54375       49.08907      -12.38993
H         41.48163       46.65844      -10.81480
H         40.01449       48.12554       -9.47363
H         39.29975       46.52343       -9.82238
N         40.34130       46.59710      -13.77928
C         39.83879       45.77936      -14.88084
C         41.00260       45.23896      -15.70665
O         41.86188       46.04040      -16.04734
C         38.91595       46.62318      -15.77534
C         37.67802       47.11551      -15.00529
C         36.67134       47.85952      -15.89994
C         36.05185       47.00964      -17.03087
N         35.31929       45.84793      -16.52149
H         40.85468       47.45056      -14.04189
H         39.21351       44.96342      -14.50950
H         38.59180       45.97382      -16.61140
H         39.46498       47.49188      -16.20111
H         38.00830       47.80853      -14.20093
H         37.16922       46.26065      -14.51255
H         37.17483       48.74131      -16.35211
H         35.84716       48.23341      -15.25453
H         36.82942       46.67494      -17.74945
H         35.34708       47.65654      -17.59763
H         35.96822       45.17419      -16.05801
H         34.57978       46.15270      -15.84788
H         34.86422       45.35441      -17.32293
N         41.13076       43.93861      -16.13674
C         40.19217       42.82561      -15.96486
C         38.82518       43.18371      -16.54527
O         37.86982       43.27072      -15.78597
C         40.11469       42.33764      -14.49438
C         41.45641       41.98973      -13.92077
O         41.85850       42.55628      -12.91676
O         42.21037       41.03330      -14.48694
H         41.96587       43.72405      -16.70482
H         40.57567       41.95128      -16.53731
H         39.47452       41.43013      -14.45805
H         39.65153       43.08051      -13.83280
N         38.61963       43.44470      -17.87140
C         39.60190       43.21798      -18.92775
C         39.16623       43.82218      -20.26316
O         38.25438       44.63728      -20.27492
H         37.67446       43.76101      -18.13882
H         39.74907       42.12173      -19.01146
H         40.57319       43.69036      -18.67945
N         39.80117       43.54790      -21.44343
C         40.81644       42.51021      -21.61060
C         40.18276       41.12793      -21.51427
O         38.96374       41.03289      -21.44768
C         41.53945       42.64156      -22.97791
C         40.66742       42.33678      -24.17655
O         40.95479       41.40781      -24.91498
O         39.58273       43.08403      -24.45477
H         39.51917       44.10166      -22.26518
H         41.58454       42.64876      -20.81854
H         42.39753       41.93384      -22.98861
H         41.95846       43.66517      -23.07977
N         40.95579       40.00535      -21.52070
C         40.39485       38.66303      -21.50400
C         40.61258       37.95994      -20.18746
O         40.15145       36.83444      -20.05955
H         41.98285       40.10019      -21.52771
H         40.83498       38.07579      -22.33830
H         39.29571       38.68796      -21.66385
N         41.26687       38.55245      -19.14698
C         41.36429       37.92397      -17.83781
C         39.97401       37.86384      -17.23004
O         39.33218       38.90025      -17.11814
C         42.30598       38.70681      -16.89263
C         43.73487       38.79279      -17.45125
O         42.34045       38.03950      -15.65626
H         41.67586       39.48876      -19.26953
H         41.79848       36.90394      -17.94673
H         41.90128       39.73553      -16.75740
H         42.81981       38.62335      -15.01595
H         43.76292       39.32645      -18.42258
H         44.37978       39.35409      -16.74209
H         44.15859       37.77516      -17.58701
N         39.46356       36.68442      -16.78288
C         38.15268       36.56544      -16.14969
C         38.28751       36.35266      -14.64574
O         37.29508       36.03418      -14.00692
C         37.26196       35.50592      -16.87099
C         37.90309       34.09375      -16.89346
C         36.92131       36.00472      -18.28874
C         36.97236       33.01181      -17.44996
H         40.06002       35.84548      -16.83363
H         37.58973       37.52295      -16.21480
H         36.30080       35.44497      -16.31300
H         38.16676       33.80078      -15.85497
H         38.83013       34.09689      -17.50470
H         37.83394       36.07811      -18.91450
H         36.19196       35.33881      -18.79086
H         36.44611       37.00801      -18.23489
H         36.71380       33.19935      -18.51175
H         37.48231       32.02658      -17.40371
H         36.04061       32.95738      -16.84834
N         39.44710       36.67577      -13.99465
C         39.58775       36.69171      -12.54385
C         39.81326       38.13788      -12.12237
O         40.78914       38.73626      -12.55316
C         40.75769       35.78401      -12.11025
C         40.53488       34.33581      -12.56464
O         40.87471       35.82149      -10.71148
H         40.25871       37.00241      -14.53458
H         38.66206       36.31484      -12.05616
H         41.69432       36.16832      -12.57929
H         41.77276       35.46129      -10.48874
H         40.45907       34.27778      -13.67142
H         41.39211       33.70518      -12.24754
H         39.60431       33.92738      -12.11655
N         38.90155       38.77855      -11.33219
C         38.96143       40.20804      -11.01768
C         39.01640       40.43781       -9.50907
O         38.85392       39.49413       -8.74875
C         37.72763       40.87147      -11.69990
C         37.61021       42.38748      -11.55083
O         36.54009       40.28725      -11.22187
H         38.08528       38.24639      -10.99430
H         39.88459       40.65526      -11.44697
H         37.84633       40.67551      -12.79380
H         36.06651       39.88805      -11.99804
H         38.54576       42.88245      -11.87020
H         36.77726       42.76005      -12.18402
H         37.37067       42.66557      -10.50619
N         39.25897       41.68954       -9.01347
C         39.25174       42.02714       -7.59129
C         40.58293       42.60273       -7.11288
O         40.67456       42.94968       -5.94245
C         38.08390       42.99900       -7.30547
C         38.23434       44.38848       -7.96173
C         37.05518       45.32578       -7.65274
C         35.73586       44.86799       -8.29945
N         34.66034       45.81814       -8.01855
H         39.44276       42.45113       -9.67934
H         39.05497       41.11648       -6.98445
H         37.99808       43.14259       -6.20567
H         37.15495       42.50336       -7.65468
H         38.33975       44.30770       -9.06193
H         39.15616       44.86527       -7.56418
H         37.30501       46.33036       -8.05787
H         36.93128       45.41945       -6.55173
H         35.43499       43.87182       -7.91379
H         35.87567       44.79036       -9.40101
H         34.90589       46.76357       -8.39229
H         33.78305       45.48872       -8.48270
H         34.49526       45.87703       -6.98734
N         41.66564       42.71067       -7.93623
C         42.94644       43.24902       -7.49141
C         42.84298       44.75200       -7.32395
O         42.51954       45.43448       -8.28716
C         44.08284       42.92932       -8.49382
C         44.46197       41.43503       -8.54271
C         43.38334       40.55224       -9.09823
O         42.99324       40.70453      -10.24525
O         42.84496       39.58327       -8.33325
H         41.58999       42.38120       -8.90594
H         43.23795       42.77410       -6.52742
H         44.99601       43.46146       -8.14403
H         43.83846       43.30952       -9.51013
H         44.72591       41.09973       -7.51555
H         45.36289       41.31324       -9.18102
N         43.13951       45.33667       -6.12912
C         43.11437       46.77027       -5.91294
H         42.81447       47.33333       -6.82197
H         42.40054       47.01003       -5.09823
H         44.12806       47.11228       -5.61390
H         43.41940       44.74457       -5.33288
Ca        44.17201       40.45473      -13.52730
O         43.56003       37.74653      -11.06797
H         42.81196       37.83454      -10.42567
H         43.97130       36.87293      -10.84963
O         46.46409       39.68783      -11.55703
H         46.14867       38.90092      -11.04581
H         46.64115       39.33776      -12.46634

Ca 1.0



