%chk=apoCaM-CA-Ng.loop4.water3.frame186.chk
%nprocshared=20
%mem=10GB
%nosave
#b3lyp/svp scf=(tight,noincore,xqc) Test 
#IOP(5/87=12) Density=Current Pop=(MK,readradii) iop(6/33=2) iop(6/42=6)

apoCaM-CA-Ng.loop4.water3.frame186 

   -3  1 
C         86.24928       35.79954        8.09532
C         84.93126       35.39787        7.44385
O         85.06504       34.08153        6.98654
H         87.07254       35.72353        7.35428
H         86.19684       36.84283        8.46832
H         86.47153       35.11926        8.94696
N         83.82841       35.53361        8.41253
C         82.49488       35.10534        7.94338
C         82.41555       33.60002        7.71792
O         82.08061       33.15197        6.63585
C         81.78699       36.06693        6.92303
C         82.49651       36.77931        5.77591
O         83.09087       36.15000        4.74587
O         82.45895       37.99986        5.74477
H         83.76767       36.53167        8.72169
H         81.81179       35.19307        8.82014
H         81.39781       36.90431        7.54776
H         80.88578       35.55198        6.52732
N         82.64000       32.77671        8.79097
C         82.54970       31.31401        8.84770
C         81.14380       30.84551        8.47658
O         80.36766       30.57546        9.38284
C         83.71767       30.61081        8.09190
C         83.70213       29.06279        8.23566
C         85.07888       31.16012        8.56391
C         83.93326       28.53276        9.65950
H         82.86353       33.23699        9.68768
H         82.68639       31.06148        9.92331
H         83.62452       30.84596        7.01041
H         84.50477       28.64259        7.59003
H         82.73507       28.66502        7.86595
H         85.90820       30.68996        7.99389
H         85.14073       32.24685        8.41499
H         85.23543       30.99511        9.64873
H         84.92675       28.83534       10.05015
H         83.14392       28.88043       10.35565
H         83.91723       27.42324        9.64660
N         80.73774       30.73330        7.17841
C         79.35395       30.48816        6.78780
C         79.06633       29.02299        6.45644
O         78.12290       28.50491        7.03771
C         78.95165       31.45414        5.64398
C         77.51972       31.27113        5.21798
O         77.25725       30.95417        4.06809
O         76.52008       31.46089        6.09968
H         81.42189       30.89050        6.42825
H         78.68106       30.75579        7.63523
H         79.59954       31.32226        4.76011
H         79.08735       32.50328        5.98323
N         79.73593       28.27266        5.53329
C         80.97035       28.66625        4.88110
C         81.34864       27.72311        3.75228
O         81.18099       26.52381        3.92337
H         79.36177       27.33031        5.34034
H         81.77773       28.65614        5.64214
H         80.89051       29.67647        4.50374
N         81.95795       28.13205        2.59318
C         82.40288       29.48797        2.25945
C         83.26239       30.03451        3.39362
O         82.91951       31.06328        3.96032
C         81.23063       30.42223        1.86166
C         80.44607       29.88055        0.70086
O         79.76456       28.72524        0.82195
O         80.39872       30.50019       -0.34957
H         82.22036       27.39375        1.92108
H         83.04165       29.43279        1.34971
H         81.66384       31.40484        1.57389
H         80.51787       30.60789        2.68105
N         84.36323       29.37436        3.85482
C         84.95401       28.19101        3.25661
C         84.75263       26.98211        4.12876
O         84.06190       27.06039        5.13619
H         84.81828       29.72468        4.70749
H         86.03923       28.38299        3.11382
H         84.53413       27.96204        2.25900
N         85.34872       25.80863        3.78680
C         85.17790       24.57411        4.53939
C         86.37688       24.26964        5.42801
O         86.33327       23.26907        6.12763
C         84.71207       23.42381        3.60882
C         85.51526       23.13148        2.32353
C         86.92804       22.66692        2.54833
N         87.31880       21.42652        2.17465
O         87.74147       23.42679        3.04049
H         85.98604       25.80666        2.97582
H         84.35577       24.68991        5.28099
H         83.69197       23.69932        3.25898
H         84.60939       22.49033        4.20341
H         85.52756       24.02117        1.65955
H         84.95953       22.33832        1.77757
H         86.65497       20.76632        1.74563
H         88.29364       21.12341        2.31315
N         87.41247       25.15481        5.55653
C         88.45055       25.03621        6.58106
C         89.85924       24.97835        6.00012
O         90.79111       24.89961        6.79364
C         88.29501       26.18516        7.62710
C         86.99110       26.02061        8.42656
C         88.34586       27.59189        7.00709
H         87.42911       26.00127        4.97421
H         88.33787       24.08533        7.14687
H         89.12831       26.10156        8.35985
H         86.10037       26.09596        7.76737
H         86.97692       25.03149        8.93355
H         86.91705       26.80370        9.21152
H         87.48062       27.76709        6.33390
H         88.29933       28.36113        7.80770
H         89.28705       27.73558        6.43853
N         90.10824       24.93099        4.65827
C         91.44641       24.73477        4.10213
C         91.84737       25.78790        3.06999
O         93.00312       25.78293        2.67702
C         91.49732       23.35355        3.40854
C         91.17489       22.21167        4.34059
N         91.97544       21.92584        5.39242
O         90.18693       21.52432        4.13145
H         89.31510       24.94400        4.00654
H         92.20872       24.76169        4.91158
H         92.50206       23.17108        2.97016
H         90.75672       23.35538        2.57764
H         92.82243       22.48128        5.57721
H         91.75313       21.13554        6.01623
N         90.93717       26.63231        2.49582
C         91.24731       27.45815        1.33104
C         90.62246       28.83495        1.44673
O         89.43818       28.92200        1.73354
C         90.63206       26.78508        0.08535
C         91.26706       25.45373       -0.23537
C         92.60414       25.38658       -0.66638
C         90.52100       24.26933       -0.13023
C         93.18016       24.15455       -0.99232
C         91.10182       23.03803       -0.44662
C         92.42914       22.97519       -0.88310
O         92.96840       21.78028       -1.19857
H         89.94978       26.57600        2.77012
H         92.34134       27.55049        1.15595
H         90.75768       27.43366       -0.80847
H         89.53958       26.66142        0.25594
H         93.19639       26.28808       -0.76535
H         89.49077       24.29699        0.20144
H         94.20738       24.11817       -1.33393
H         90.51612       22.13213       -0.35718
H         93.87785       21.69357       -1.51824
N         91.33729       29.94750        1.09308
C         90.74425       31.27271        0.89341
C         90.22930       31.93516        2.16554
O         89.68474       33.02507        2.04821
C         89.63616       31.21224       -0.19642
C         90.18215       30.72360       -1.54821
C         89.08262       30.61333       -2.56632
O         88.36064       31.69799       -2.90693
O         88.84141       29.53902       -3.09414
H         92.32846       29.83581        0.83337
H         91.53448       31.95337        0.50383
H         89.20737       32.22666       -0.34876
H         88.80378       30.55395        0.12555
H         90.66131       29.72959       -1.42956
H         90.94883       31.43742       -1.91891
N         90.39643       31.39332        3.40833
C         89.90850       32.03966        4.62576
C         91.03051       32.46803        5.55772
O         90.71599       33.06711        6.57784
C         88.96008       31.08056        5.37159
C         87.67321       30.73396        4.61143
C         86.75881       31.91993        4.47082
O         87.05472       32.86462        3.75854
O         85.59628       31.94128        5.14259
H         90.89351       30.49728        3.51229
H         89.37271       32.98030        4.38947
H         88.65788       31.51868        6.34888
H         89.51501       30.14004        5.58148
H         87.14604       29.96844        5.21887
H         87.88684       30.28901        3.61662
N         92.34670       32.22973        5.28990
C         93.41705       32.66100        6.16890
H         94.10308       33.33091        5.61053
H         93.04541       33.21473        7.05768
H         93.98158       31.77499        6.52490
H         92.62252       31.72636        4.43598
Ca        83.96176       34.16551        5.03821
O         85.65242       35.81369        3.06698
H         86.44703       35.42393        2.62376
H         84.95338       35.81841        2.36561
O         84.16002       33.06193        1.82232
H         83.45495       33.30744        1.17189
H         84.91671       32.75264        1.26373
O         81.29391       34.03986        3.31649
H         80.59018       34.72685        3.42925
H         80.94498       33.44463        2.60754

Ca 1.0



