%chk=apoCaM-CA-Ng.loop2.water4.frame1141.chk
%nprocshared=20
%mem=10GB
%nosave
#b3lyp/svp scf=(tight,noincore,xqc) Test 
#IOP(5/87=12) Density=Current Pop=(MK,readradii) iop(6/33=2) iop(6/42=6)

apoCaM-CA-Ng.loop2.water4.frame1141 

   -2  1 
C         86.58191       52.67772       72.81537
C         86.19231       52.79513       74.26631
O         85.14893       52.27270       74.62951
H         87.55299       52.14303       72.73445
H         85.82412       52.09429       72.25021
H         86.66732       53.68067       72.34982
N         86.97817       53.41903       75.19209
C         88.24989       54.06686       74.88806
C         88.33322       55.47457       75.44951
O         87.41658       55.92244       76.11900
C         89.41758       53.13932       75.28462
C         89.48153       52.52972       76.66764
O         90.29527       51.63671       76.84071
O         88.68111       52.84589       77.70662
H         86.67477       53.38543       76.17680
H         88.35714       54.20577       73.79291
H         90.39206       53.61888       75.05505
H         89.32291       52.26624       74.60150
N         89.40738       56.25681       75.13582
C         89.61817       57.63735       75.56361
C         89.97294       57.78892       77.03428
O         90.26126       58.91509       77.41408
C         88.43004       58.54256       75.18799
H         90.12071       55.86368       74.50374
H         90.50399       58.01593       75.00606
H         88.20670       58.45587       74.10451
H         87.51754       58.29285       75.76683
H         88.67218       59.60458       75.40805
N         90.02147       56.74007       77.91383
C         90.38255       56.91608       79.31941
C         90.47777       55.60419       80.07762
O         89.51253       54.86569       80.13851
C         89.43533       57.89245       80.06501
C         87.92736       57.70089       80.04527
O         87.24491       56.70916       79.41996
O         87.26733       58.54690       80.62707
H         89.82649       55.78801       77.57946
H         91.39331       57.38131       79.36058
H         89.60684       58.91073       79.66591
H         89.76887       57.94338       81.12489
N         91.60059       55.29405       80.78686
C         91.68836       54.11875       81.64165
C         90.70583       54.12968       82.81039
O         90.72003       53.16894       83.56641
H         92.41891       55.92029       80.74657
H         92.71362       54.06084       82.06810
H         91.52190       53.20789       81.02600
N         89.82259       55.15448       83.02441
C         88.85669       55.20085       84.11444
C         87.44291       55.07308       83.56647
O         87.24833       55.02795       82.35900
C         88.95726       56.57859       84.82384
C         90.26035       56.93623       85.50081
N         91.29569       56.07328       85.62364
O         90.36829       58.05983       85.96909
H         89.79916       55.95753       82.38982
H         89.01426       54.36514       84.83045
H         88.16662       56.67188       85.59699
H         88.75923       57.35886       84.05302
H         91.24841       55.10966       85.27578
H         92.15941       56.37256       86.09952
N         86.39617       55.04571       84.43667
C         84.99675       55.07009       84.04550
C         84.33123       56.30524       84.62724
O         85.01817       57.10544       85.24868
H         86.59592       55.04378       85.44890
H         84.50854       54.16071       84.45647
H         84.87518       55.06980       82.94467
N         82.99235       56.54404       84.53612
C         82.02371       55.69553       83.85571
C         81.13890       56.57146       82.97890
O         80.51537       57.48036       83.51073
C         81.17507       54.95730       84.91909
C         80.15976       54.00819       84.27736
O         82.01417       54.19587       85.75097
H         82.62637       57.36772       85.04055
H         82.53160       54.92180       83.24194
H         80.60476       55.69406       85.53421
H         82.33772       54.79731       86.47210
H         79.44783       54.56376       83.63194
H         80.68316       53.24299       83.66453
H         79.57923       53.49113       85.07049
N         81.01478       56.34548       81.63757
C         80.14647       57.14762       80.76996
C         79.03266       56.28769       80.17493
O         79.30388       55.14947       79.82171
C         80.93793       57.87905       79.64673
C         81.69208       56.90650       78.70207
C         81.88112       58.92270       80.27081
C         82.29212       57.59680       77.47693
H         81.53908       55.56259       81.22049
H         79.67425       57.94528       81.36942
H         80.18920       58.43508       79.03857
H         80.98517       56.14976       78.30719
H         82.49687       56.37853       79.25294
H         81.30294       59.61847       80.91660
H         82.66400       58.43155       80.88609
H         82.36665       59.54360       79.49231
H         82.76072       56.83827       76.81872
H         81.49535       58.10209       76.89573
H         83.07073       58.33250       77.75835
N         77.74899       56.73556       80.00117
C         77.25941       58.05977       80.38232
C         76.16614       58.57492       79.44508
O         75.77096       57.87875       78.51685
C         76.78580       58.03026       81.85707
C         75.64130       57.08039       82.09326
O         74.57007       57.50174       82.49925
O         75.79975       55.75807       81.89262
H         77.06774       56.06474       79.61021
H         78.07247       58.80528       80.28770
H         76.48344       59.05048       82.17218
H         77.62674       57.72976       82.51629
N         75.61857       59.80584       79.66411
C         74.50767       60.37558       78.91017
C         74.84301       61.80003       78.45805
O         75.33158       62.55660       79.29135
C         73.27214       60.39676       79.82792
C         72.05466       60.89101       79.08842
C         71.74873       62.26168       79.06733
C         71.24091       59.99212       78.37619
C         70.64690       62.72643       78.34535
C         70.13810       60.46193       77.65587
C         69.84212       61.82791       77.64003
H         75.96499       60.35637       80.46494
H         74.23720       59.72364       78.06040
H         73.45761       61.01737       80.73160
H         73.07830       59.36103       80.18649
H         72.37112       62.96961       79.60015
H         71.46730       58.93285       78.36857
H         70.42129       63.78448       78.32853
H         69.51688       59.76825       77.10414
H         68.99159       62.19102       77.07824
N         74.54632       62.29708       77.21433
C         73.84829       61.57978       76.16069
C         74.69712       60.46224       75.59544
O         74.23137       59.32950       75.63181
C         73.40972       62.68997       75.19142
C         74.46963       63.75791       75.35593
C         74.77146       63.68589       76.85243
H         72.90623       61.12891       76.53150
H         73.17203       62.37015       74.15450
H         72.48503       63.14499       75.61934
H         75.36087       63.44871       74.78677
H         74.19404       64.77015       74.98982
H         75.81366       64.02449       77.03932
H         74.05825       64.30815       77.43783
N         75.93603       60.66733       75.06885
C         76.74071       59.57582       74.55813
C         76.56012       59.53469       73.05006
O         77.00332       60.47372       72.40297
C         78.23843       59.72011       74.93242
C         78.56507       59.61610       76.43983
C         78.24604       60.81724       77.29380
O         78.53792       60.77976       78.60705
O         77.79435       61.84414       76.81852
H         76.30176       61.61727       74.96250
H         76.42414       58.63468       75.02949
H         78.67735       60.65196       74.51233
H         78.75510       58.86193       74.44815
H         79.66143       59.47820       76.53084
H         78.07212       58.71274       76.85818
N         75.90625       58.53799       72.37697
C         75.23550       57.38161       72.94850
H         74.16395       57.40803       72.65822
H         75.68970       56.45506       72.54274
H         75.25778       57.31301       74.04532
H         75.84786       58.61803       71.35016
Ca        87.62397       54.69837       78.43684
O         84.64089       54.79372       80.32461
H         84.50687       55.73347       80.60691
H         83.73821       54.38920       80.36790
O         84.67924       55.05975       77.30460
H         84.96645       55.92359       77.69472
H         84.67850       55.21678       76.32709
O         85.40346       52.27904       78.55725
H         85.65906       51.62572       79.25568
H         84.58285       51.90158       78.15183
O         87.92684       52.46585       80.77958
H         87.49660       51.97083       81.52084
H         88.64476       51.86395       80.45929

Ca 1.0



