%chk=apoCaM-CA-Ng.loop3.water5.frame7.chk
%nprocshared=20
%mem=10GB
%nosave
#b3lyp/svp scf=(tight,noincore,xqc) Test 
#IOP(5/87=12) Density=Current Pop=(MK,readradii) iop(6/33=2) iop(6/42=6)

apoCaM-CA-Ng.loop3.water5.frame7 

   0  1 
C         71.24471       50.12738       96.02025
C         72.42191       50.47131       96.88539
O         73.33702       49.66683       96.96546
H         70.48055       50.93229       96.03218
H         71.58446       49.97614       94.97409
H         70.77660       49.18958       96.38759
N         72.46753       51.65787       97.56252
C         73.56994       52.08372       98.42766
C         73.69562       51.25489       99.70202
O         74.62757       51.50647      100.45546
C         74.90956       52.12984       97.65488
C         74.81877       53.02336       96.45075
O         74.51106       54.32637       96.59796
O         75.03031       52.57515       95.33541
H         71.68337       52.31765       97.44746
H         73.35855       53.12134       98.77070
H         75.22521       51.11149       97.34718
H         75.70595       52.53163       98.31767
N         72.78639       50.29581      100.04606
C         72.87283       49.50589      101.27115
C         73.01966       48.01637      100.95220
O         73.16858       47.22767      101.87340
C         71.62925       49.84202      102.12122
C         71.64224       49.29847      103.56334
C         70.37699       49.70569      104.34500
C         70.27306       51.21894      104.62189
N         69.01404       51.53982      105.29359
H         71.96766       50.13062       99.44240
H         73.77245       49.80099      101.85391
H         70.71557       49.48970      101.59305
H         71.59401       50.94795      102.17672
H         72.54668       49.65472      104.10409
H         71.66463       48.19084      103.53498
H         70.38556       49.18178      105.32608
H         69.48432       49.36149      103.77938
H         70.31096       51.80422      103.68161
H         71.12834       51.53337      105.26129
H         68.21097       51.30609      104.66460
H         68.92806       51.00741      106.18901
H         68.98696       52.56464      105.50055
N         73.02291       47.55803       99.66216
C         73.21087       46.15684       99.30487
C         74.60216       45.70805       99.72185
O         75.49242       46.54128       99.83300
C         73.00969       45.99921       97.78000
C         72.87976       44.58174       97.29695
O         73.87913       43.69457       97.43418
O         71.86528       44.24162       96.70914
H         72.88277       48.21868       98.89255
H         72.42716       45.56798       99.83181
H         73.83905       46.50558       97.23770
H         72.06417       46.51808       97.50248
N         74.85176       44.40547      100.01712
C         76.13886       43.93503      100.49743
C         77.27950       43.99373       99.49651
O         78.35991       43.57664       99.88948
H         74.07723       43.72638       99.97259
H         76.03305       42.87369      100.80410
H         76.42034       44.51592      101.40346
N         77.15942       44.47696       98.21880
C         78.29120       44.50125       97.28974
C         78.75710       45.91420       96.96964
O         79.80170       46.02945       96.34270
C         77.96872       43.73099       95.99138
C         77.64674       42.28135       96.25905
N         78.46038       41.29676       95.81124
O         76.64057       41.99173       96.88608
H         76.25656       44.83855       97.88341
H         79.17371       44.00806       97.75240
H         78.85747       43.78462       95.32507
H         77.11714       44.20263       95.45270
H         79.32262       41.51850       95.29424
H         78.23757       40.30759       95.99751
N         78.09041       47.03384       97.38382
C         78.60000       48.37675       97.14590
C         78.71181       48.67487       95.66922
O         77.69575       48.69157       94.98948
H         77.21261       46.94864       97.91215
H         79.59176       48.46454       97.64019
H         77.92555       49.12755       97.61093
N         79.94031       48.88792       95.10752
C         80.21200       49.13378       93.69040
C         79.89295       47.96530       92.76997
O         80.22943       48.09566       91.60300
C         79.50504       50.40400       93.16988
C         79.97736       51.66445       93.84047
C         79.08998       52.43706       94.60392
C         81.30253       52.10220       93.66981
C         79.51986       53.63229       95.18630
C         81.72852       53.30073       94.24745
C         80.83617       54.07189       95.00612
O         81.22897       55.23701       95.55854
H         80.76385       48.86764       95.72873
H         81.31172       49.27691       93.58840
H         78.40787       50.28248       93.27487
H         79.70486       50.53374       92.08327
H         78.06470       52.11784       94.74343
H         82.00085       51.52710       93.07364
H         78.82475       54.22183       95.76977
H         82.74844       53.63249       94.09686
H         82.12445       55.58506       95.44140
N         79.25343       46.82471       93.17860
C         78.96862       45.66162       92.34271
C         80.20471       44.77454       92.26070
O         80.11495       43.63020       92.68530
C         78.29933       46.01959       90.97651
C         77.10218       47.00168       91.13842
C         77.85858       44.75384       90.22101
C         75.96312       46.50610       92.03635
H         78.92327       46.74373       94.14193
H         78.21659       45.04888       92.89265
H         79.03978       46.51980       90.31994
H         76.68553       47.22932       90.13307
H         77.46426       47.96329       91.55829
H         78.72749       44.10213       90.01204
H         77.11989       44.16657       90.80374
H         77.40763       45.03140       89.24393
H         75.16808       47.28063       92.07554
H         75.51307       45.57394       91.64034
H         76.31749       46.33648       93.07394
N         81.41025       45.23251       91.80789
C         82.60732       44.39884       91.81648
C         82.53002       43.30722       90.76930
O         83.28264       42.34777       90.86254
C         83.86945       45.24326       91.57598
O         83.95046       46.30283       92.49270
H         81.50540       46.20270       91.49909
H         82.69033       43.94188       92.82938
H         83.83070       45.67448       90.55242
H         84.78574       44.61541       91.64461
H         84.00309       45.90136       93.39859
N         81.63879       43.39421       89.73855
C         81.42402       42.36721       88.73496
C         80.99741       41.07939       89.40599
O         81.51876       40.01979       89.08587
C         82.65312       42.20333       87.82834
H         81.03682       44.22572       89.66195
H         80.57863       42.70438       88.09406
H         82.90696       43.17702       87.35857
H         83.53362       41.84690       88.40216
H         82.43863       41.47039       87.02203
N         80.06837       41.12238       90.40310
C         79.60824       39.94357       91.11550
C         78.10056       39.87791       91.10299
O         77.44513       40.88641       90.87432
C         80.11956       39.97528       92.55449
H         79.69677       42.03708       90.69677
H         80.00453       39.02492       90.63175
H         79.78210       39.07406       93.10932
H         81.23054       39.99429       92.55604
H         79.74923       40.88223       93.07453
N         77.48463       38.67932       91.30066
C         76.04239       38.48259       91.27668
C         75.47946       39.03364       89.97213
O         74.57817       39.86163       89.99069
C         75.42977       39.11001       92.54452
C         73.98691       38.66179       92.84433
C         73.47254       39.34848       94.08320
O         72.34745       39.11783       94.49497
O         74.24097       40.27818       94.68555
H         78.07297       37.84332       91.43642
H         75.86099       37.38626       91.32187
H         75.49085       40.21906       92.47114
H         76.04389       38.79030       93.41645
H         73.97113       37.56117       92.99832
H         73.31222       38.91399       92.00002
N         76.04876       38.66273       88.79085
C         75.66588       39.21463       87.50703
H         74.82684       39.93729       87.58677
H         76.53715       39.74701       87.06758
H         75.36682       38.39315       86.82545
H         76.82986       37.98956       88.80101
Ca        73.66532       41.81343       96.21848
O         71.78890       41.68666       98.96650
H         71.04640       42.34025       98.92617
H         71.36381       40.84719       99.27437
O         70.72919       41.67459       95.55718
H         71.03064       41.36972       94.66519
H         69.79815       41.97689       95.41285
O         73.92497       43.18342       93.55823
H         74.81318       42.84529       93.83691
H         73.74844       43.94439       94.16680
O         72.88828       38.99705       97.61751
H         72.27001       38.55812       98.25416
H         73.40488       38.25261       97.21866
O         74.95704       40.95483       99.11486
H         75.86517       40.57862       98.99715
H         74.78549       40.88471      100.08710

Ca 1.0



