%chk=apoCaM-CA-Ng.loop1.water3.frame276.chk
%nprocshared=20
%mem=10GB
%nosave
#b3lyp/svp scf=(tight,noincore,xqc) Test 
#IOP(5/87=12) Density=Current Pop=(MK,readradii) iop(6/33=2) iop(6/42=6)

apoCaM-CA-Ng.loop1.water3.frame276 

   0  1 
C         35.44093       40.39780       40.52927
C         35.26847       41.79049       40.00642
O         35.72970       42.08043       38.91151
H         34.44415       39.93345       40.68136
H         36.02132       39.77836       39.81299
H         35.98215       40.42913       41.49805
N         34.61315       42.71661       40.75747
C         34.40159       44.09077       40.32715
C         35.17145       45.03756       41.23070
O         34.58205       45.93473       41.80077
C         32.87836       44.38146       40.25076
C         32.10890       44.06108       41.51496
O         31.21237       43.23278       41.48551
O         32.38736       44.67940       42.67679
H         34.25860       42.43531       41.68523
H         34.81311       44.25665       39.30915
H         32.45137       43.76428       39.42965
H         32.72269       45.44427       39.98265
N         36.51201       44.88269       41.42947
C         37.27342       45.73720       42.34294
C         38.64848       46.08595       41.78917
O         39.29320       45.17615       41.28533
C         37.44892       45.03539       43.69921
C         36.09131       44.81126       44.39437
C         36.22623       44.38332       45.86457
C         36.81438       45.46521       46.80134
N         35.95234       46.64686       46.90961
H         36.97912       44.06848       41.00195
H         36.71451       46.65519       42.56225
H         38.06975       45.70537       44.32016
H         37.99193       44.07056       43.59339
H         35.54021       44.02278       43.83771
H         35.47672       45.73124       44.34979
H         36.86050       43.47248       45.90999
H         35.21711       44.11691       46.24653
H         37.83177       45.76953       46.48029
H         36.91954       45.01911       47.81351
H         36.38424       47.32511       47.57796
H         35.84649       47.12909       45.99317
H         35.00852       46.37460       47.26715
N         39.25733       47.31380       41.91443
C         38.73469       48.54778       42.52011
C         38.34905       48.36534       43.98448
O         37.16976       48.24950       44.27498
C         37.62860       49.20499       41.67017
C         38.10554       49.53100       40.28736
O         39.38160       49.29275       39.93051
O         37.31695       49.96203       39.46260
H         40.22262       47.37793       41.55309
H         39.53892       49.31308       42.49452
H         37.30923       50.15074       42.14939
H         36.75161       48.54259       41.57625
N         39.26563       48.38192       44.99479
C         40.66367       48.70270       44.76735
C         41.50306       48.76060       46.03178
O         41.01772       48.42226       47.10088
H         38.92365       48.23580       45.95658
H         40.68599       49.72529       44.33227
H         41.11643       47.97265       44.06324
N         42.78281       49.24115       46.01358
C         43.44309       49.75414       44.81466
C         43.50574       51.26713       44.86732
O         43.20036       51.85496       45.89794
C         44.80594       49.07393       44.56057
C         45.82738       49.28120       45.64868
O         46.87626       49.85292       45.39861
O         45.62538       48.78708       46.88485
H         43.27068       49.32659       46.91752
H         42.83633       49.53110       43.91745
H         45.21672       49.46221       43.60268
H         44.64639       47.98129       44.43448
N         43.79244       51.97163       43.73854
C         43.70178       53.41836       43.66854
C         42.28705       53.87826       43.95254
O         42.08760       54.66389       44.86808
H         44.03060       51.46206       42.87346
H         43.97325       53.75083       42.64297
H         44.42045       53.87711       44.38231
N         41.25010       53.42100       43.19236
C         39.86459       53.83799       43.39768
C         39.35885       53.41846       44.76443
O         39.55148       52.27942       45.16939
C         38.90286       53.27384       42.32451
C         39.27475       53.75786       40.91777
O         37.60118       53.72161       42.61710
H         41.46473       52.75904       42.43210
H         39.81000       54.94697       43.30720
H         38.93301       52.16047       42.36546
H         36.97388       53.17749       42.07508
H         40.28201       53.40771       40.61991
H         38.54269       53.36164       40.18277
H         39.24967       54.86844       40.87608
N         38.61683       54.29900       45.48757
C         38.01699       54.00229       46.78205
C         37.05414       52.82508       46.64608
O         37.20050       51.86125       47.38257
C         37.26186       55.25950       47.33931
C         38.21260       56.48478       47.49093
C         36.60133       54.94404       48.70097
C         37.46290       57.79827       47.73380
H         38.43777       55.21858       45.05993
H         38.82125       53.74362       47.50881
H         36.46526       55.52266       46.60839
H         38.79275       56.65908       46.56563
H         38.94739       56.30296       48.30506
H         35.89176       54.09654       48.62035
H         37.37541       54.68320       49.45504
H         36.01444       55.80339       49.07992
H         36.76409       57.99342       46.89101
H         36.89521       57.79041       48.68371
H         38.19070       58.63577       47.77923
N         36.02266       52.86699       45.74768
C         34.95780       51.86140       45.69677
C         34.87674       51.12100       44.35978
O         35.62316       51.40459       43.44093
C         33.60684       52.51828       46.09725
C         33.21223       53.70330       45.20882
O         33.67884       52.96623       47.42563
H         35.96133       53.67694       45.11629
H         35.15853       51.06293       46.44391
H         32.78075       51.77655       46.01907
H         33.60821       52.16070       48.00347
H         33.15095       53.39667       44.14428
H         32.22094       54.08954       45.52688
H         33.93485       54.53976       45.31023
N         33.99825       50.07649       44.25493
C         33.90461       49.11594       43.14778
C         33.54871       49.70564       41.77950
O         33.27471       50.89424       41.67154
C         32.89903       47.98848       43.54613
C         31.45874       48.48001       43.74584
O         33.35113       47.37445       44.72763
H         33.42515       49.88924       45.08701
H         34.90141       48.64434       43.03334
H         32.85819       47.23844       42.73719
H         33.02100       46.43835       44.72426
H         30.81015       47.61516       44.00418
H         31.38043       49.21793       44.56905
H         31.07314       48.93882       42.81334
N         33.52898       48.88467       40.67966
C         33.09288       49.27469       39.34318
C         33.83372       48.53996       38.20344
O         33.45669       48.75363       37.06117
C         31.55216       49.12688       39.24703
C         31.02814       47.70333       39.51301
C         29.49180       47.58633       39.44121
C         28.76225       48.44087       40.49550
N         27.31903       48.20409       40.46264
H         33.70261       47.88598       40.82556
H         33.29861       50.35628       39.18509
H         31.20728       49.46365       38.24473
H         31.12021       49.81475       40.00169
H         31.35144       47.36708       40.52092
H         31.45855       47.01735       38.75251
H         29.23137       46.51923       39.61653
H         29.13784       47.86558       38.42498
H         28.94676       49.51972       40.30749
H         29.14373       48.18634       41.50809
H         27.11363       47.20556       40.69640
H         26.85678       48.81639       41.17380
H         26.93431       48.43386       39.51780
N         34.92454       47.72671       38.40491
C         35.66753       47.10899       37.29136
C         34.82704       46.04740       36.58761
O         33.81526       45.61496       37.12354
C         37.01400       46.53476       37.82477
C         37.99150       45.84978       36.83339
C         38.48546       46.68135       35.66240
O         39.17911       47.82402       35.83231
O         38.31619       46.27415       34.52477
H         35.28815       47.60076       39.35865
H         35.91171       47.91362       36.56382
H         36.78221       45.78477       38.61323
H         37.55077       47.36410       38.32244
H         37.51395       44.92363       36.44847
H         38.88360       45.53052       37.41559
N         35.18172       45.60441       35.35016
C         34.44785       44.58980       34.62812
H         33.40123       44.91875       34.46309
H         34.92479       44.41778       33.63767
H         34.46281       43.63490       35.19409
H         35.99468       46.01651       34.88348
Ca        39.70801       48.59099       37.85297
O         41.32686       51.96024       38.00156
H         41.89765       52.36992       38.69916
H         40.69100       52.67646       37.75019
O         41.16371       50.43936       34.97504
H         41.49274       49.52196       34.80027
H         40.95295       50.80270       34.07832
O         38.53261       51.18599       36.65032
H         38.24741       50.42619       36.08357
H         37.74900       51.37441       37.22461

Ca 1.0



