%chk=apoCaM-CA-Ng.loop1.water3.frame1065.chk
%nprocshared=20
%mem=10GB
%nosave
#b3lyp/svp scf=(tight,noincore,xqc) Test 
#IOP(5/87=12) Density=Current Pop=(MK,readradii) iop(6/33=2) iop(6/42=6)

apoCaM-CA-Ng.loop1.water3.frame1065 

   0  1 
C          6.61356       60.49799       39.49044
C          7.45435       59.59767       40.34310
O          7.78429       59.99576       41.45179
H          5.66246       60.72166       40.01822
H          7.15858       61.44928       39.31148
H          6.38017       60.03042       38.51227
N          7.85234       58.36989       39.89194
C          8.68796       57.47452       40.68357
C         10.04460       57.32171       40.02722
O         10.51873       56.21552       39.80591
C          7.97895       56.12543       40.92190
C          6.69670       56.24314       41.70713
O          6.25470       57.43223       42.16170
O          6.05162       55.23662       41.95104
H          7.57494       58.06668       38.94613
H          8.90248       57.92423       41.66622
H          8.65662       55.45586       41.49557
H          7.75967       55.65263       39.93997
N         10.74283       58.44557       39.72074
C         12.10955       58.44956       39.21887
C         13.07285       57.90630       40.27302
O         13.80473       56.98844       39.93031
C         12.51218       59.85838       38.72408
C         11.63334       60.26088       37.52212
C         11.93741       61.66996       37.01067
C         11.02739       62.00121       35.81650
N         11.24582       63.36707       35.34592
H         10.27432       59.35171       39.87185
H         12.17211       57.79393       38.31920
H         13.57297       59.84211       38.38896
H         12.41977       60.60857       39.53520
H         10.56122       60.23130       37.80951
H         11.79302       59.52968       36.69837
H         13.00239       61.74058       36.69940
H         11.75083       62.39834       37.82944
H          9.96122       61.89087       36.11775
H         11.22950       61.28734       34.98642
H         10.61474       63.55112       34.53265
H         11.01931       64.04669       36.10822
H         12.23858       63.49031       35.04214
N         13.13901       58.32890       41.57691
C         12.28370       59.33086       42.21369
C         11.30109       58.65096       43.16097
O         11.37412       57.44359       43.34085
C         13.12802       60.43233       42.88283
C         14.09966       59.90576       43.89835
O         13.66497       59.22354       44.97399
O         15.29393       60.10477       43.75020
H         13.80611       57.83458       42.19132
H         11.66115       59.84533       41.47284
H         12.46262       61.17312       43.37401
H         13.69706       60.96481       42.08812
N         10.26934       59.35600       43.70793
C          9.17874       58.71077       44.42792
C          9.53180       58.21743       45.80397
O         10.61085       58.49783       46.30241
H         10.18065       60.36020       43.49147
H          8.80129       57.85752       43.83171
H          8.34201       59.43154       44.55127
N          8.60976       57.47061       46.48079
C          8.74906       57.03476       47.86851
C          7.53897       57.52863       48.66994
O          6.59600       57.99667       48.04464
C          8.84350       55.48670       47.91331
C          9.90570       54.87676       47.02040
O         11.21353       55.18907       47.13727
O          9.57420       54.05876       46.17720
H          7.74521       57.20589       45.98167
H          9.63864       57.49445       48.30846
H          7.85972       55.06634       47.60505
H          9.04380       55.13937       48.93884
N          7.41795       57.46976       50.03184
C          8.42182       57.07012       51.00658
C          9.49596       58.11494       51.16752
O          9.15362       59.26244       51.41871
H          6.51211       57.76917       50.42817
H          8.81517       56.05903       50.81845
H          7.92249       57.02513       51.99977
N         10.81913       57.79400       51.07409
C         11.88217       58.77593       51.30212
C         12.42307       59.33562       49.95838
O         11.52265       59.07104       48.94017
C         13.03166       58.14032       52.12752
C         12.57035       57.60298       53.48842
O         14.09056       59.04589       52.30611
H         11.07960       56.82495       50.83475
H         11.46512       59.62991       51.88244
H         13.42640       57.27458       51.55356
H         13.76212       59.78715       52.87910
H         12.17477       58.42658       54.11897
H         11.78214       56.83178       53.36307
H         13.43196       57.13488       54.01233
N         12.61878       60.79100       50.08022
C         13.04316       61.54533       48.87964
C         14.30911       60.96886       48.28063
O         14.25746       59.91388       47.66458
C         11.93040       61.72129       47.79135
C         10.62030       62.25305       48.42725
C         12.43056       62.65609       46.66808
C          9.46017       62.37781       47.43433
H         13.33228       60.96134       50.82559
H         13.26437       62.57246       49.25043
H         11.71388       60.74484       47.31532
H         10.79930       63.24158       48.90302
H         10.29072       61.54332       49.21600
H         12.64035       63.67090       47.06797
H         13.35720       62.25904       46.20338
H         11.69077       62.73453       45.84694
H          8.54542       62.70013       47.97454
H          9.66935       63.14064       46.65764
H          9.25887       61.39934       46.94776
N         15.48832       61.62959       48.42581
C         16.72919       61.20592       47.79258
C         17.68625       60.56012       48.78326
O         18.77195       60.18310       48.36728
C         17.37428       62.40651       47.04499
C         17.84863       63.53328       47.97686
O         16.45910       62.94503       46.12531
H         15.50448       62.46449       49.02927
H         16.51988       60.42233       47.03044
H         18.28153       62.05120       46.50183
H         16.46183       62.35158       45.33018
H         17.00762       63.99461       48.53316
H         18.59654       63.15437       48.70450
H         18.32838       64.33569       47.37702
N         17.35342       60.37148       50.09699
C         18.26241       59.75126       51.05685
C         18.56608       58.31529       50.64762
O         17.68791       57.46967       50.74180
C         17.64751       59.80779       52.48161
C         18.51565       59.13007       53.54297
O         17.45735       61.14979       52.85878
H         16.43352       60.68845       50.43145
H         19.20462       60.34401       51.06334
H         16.67332       59.26403       52.47979
H         16.50745       61.38233       52.67815
H         18.01409       59.20685       54.53147
H         18.64793       58.05096       53.31513
H         19.51063       59.61697       53.60227
N         19.79531       57.98738       50.14759
C         20.18996       56.64494       49.73215
C         19.17148       56.00336       48.81003
O         18.53784       55.02630       49.18848
C         20.57377       55.74210       50.92387
C         21.81717       56.28736       51.65599
C         22.52795       55.22887       52.51354
C         21.69018       54.68535       53.67417
N         22.45123       53.68098       54.41979
H         20.48567       58.74078       50.01051
H         21.12849       56.71907       49.13726
H         20.85391       54.75691       50.48733
H         19.72557       55.58692       51.62470
H         21.55168       57.18794       52.25054
H         22.57263       56.58970       50.89731
H         23.45428       55.68535       52.92611
H         22.83080       54.38420       51.85486
H         20.76028       54.21652       53.28645
H         21.41341       55.52178       54.35251
H         23.33044       54.10117       54.80064
H         21.87237       53.32701       55.21457
H         22.69289       52.87701       53.79470
N         19.03467       56.46754       47.53784
C         18.15493       55.84460       46.55320
C         17.20732       56.86572       45.93921
O         16.01145       56.68061       46.11458
C         18.94982       55.04252       45.49666
C         19.79416       53.93781       46.15610
C         20.52739       53.12194       45.13221
O         19.90968       52.48762       44.29187
O         21.87321       53.07250       45.14773
H         19.63893       57.24999       47.26092
H         17.51658       55.08192       47.05534
H         19.62097       55.67827       44.89369
H         18.22137       54.56839       44.80173
H         19.13995       53.26110       46.74808
H         20.53681       54.39842       46.84307
N         17.57910       57.96350       45.21196
C         18.91777       58.39620       44.86217
H         19.72263       57.75018       45.22888
H         19.00693       58.44062       43.75675
H         19.08921       59.41295       45.27322
H         16.82383       58.56738       44.86348
Ca        11.91842       56.89956       48.39373
O         14.37161       54.42055       47.44862
H         14.48245       53.73506       46.74096
H         15.20780       54.36822       47.97671
O         13.33546       55.61983       44.73356
H         12.56284       56.06677       45.16305
H         12.96782       55.24249       43.89425
O         15.09126       57.25960       48.93580
H         15.84935       57.78796       48.58026
H         15.09780       57.44975       49.90603

Ca 1.0



