%chk=apoCaM-CA-Ng.loop1.water3.frame315.chk
%nprocshared=20
%mem=10GB
%nosave
#b3lyp/svp scf=(tight,noincore,xqc) Test 
#IOP(5/87=12) Density=Current Pop=(MK,readradii) iop(6/33=2) iop(6/42=6)

apoCaM-CA-Ng.loop1.water3.frame315 

   0  1 
C         40.40032       98.98542       47.52981
C         40.85858      100.30941       46.98580
O         42.01905      100.65163       47.15470
H         39.32978       98.79758       47.29738
H         41.00123       98.16809       47.07925
H         40.52594       98.96955       48.63196
N         39.99244      101.10360       46.30038
C         40.35613      102.38439       45.69742
C         40.61524      103.50434       46.71089
O         40.77927      104.62121       46.25686
C         39.22941      102.83893       44.73258
C         39.01456      101.85571       43.61339
O         37.81393      101.26817       43.45089
O         39.92163      101.59901       42.83696
H         39.03548      100.74737       46.14834
H         41.27015      102.25647       45.07493
H         39.49688      103.81037       44.26120
H         38.28312      102.97797       45.30029
N         40.66545      103.33655       48.06556
C         40.80024      104.47085       48.98571
C         42.11094      104.41859       49.77165
O         42.35557      103.38150       50.37287
C         39.62848      104.45604       49.98951
C         38.21936      104.49042       49.37168
C         37.91484      105.76157       48.56476
C         36.42587      105.79421       48.17844
N         36.09552      106.98610       47.39951
H         40.57059      102.39822       48.47581
H         40.74636      105.41585       48.43651
H         39.73202      105.32184       50.67992
H         39.69360      103.52801       50.59996
H         37.50465      104.43696       50.22215
H         38.05619      103.59531       48.73218
H         38.54537      105.78942       47.65054
H         38.13895      106.65678       49.18493
H         35.81471      105.79247       49.10872
H         36.16508      104.88870       47.58671
H         35.06194      107.01815       47.24520
H         36.38811      107.85136       47.90965
H         36.56255      106.93784       46.46756
N         42.98867      105.47275       49.91993
C         42.90840      106.81942       49.33823
C         41.57642      107.50528       49.63648
O         40.82100      107.77267       48.71219
C         43.26980      106.80153       47.83780
C         44.71821      106.48657       47.57122
O         45.57908      106.25471       48.57908
O         45.13394      106.49413       46.42433
H         43.79317      105.31351       50.54699
H         43.68702      107.46714       49.79945
H         43.12521      107.82336       47.44041
H         42.62221      106.09567       47.28469
N         41.19911      107.85960       50.89565
C         42.07581      107.75785       52.05305
C         41.38607      108.15261       53.35065
O         40.17983      108.35109       53.35872
H         40.26315      108.27916       51.00207
H         42.94370      108.42920       51.87990
H         42.43585      106.71570       52.17282
N         42.07037      108.26645       54.52559
C         43.52424      108.18455       54.63013
C         44.16281      109.52154       54.28023
O         43.45159      110.50070       54.09307
C         43.94454      107.71846       56.04659
C         43.58606      108.65295       57.18119
O         43.02069      109.71730       56.98368
O         43.90618      108.30476       58.44141
H         41.52584      108.49872       55.37017
H         43.89481      107.40851       53.92605
H         45.04496      107.56956       56.06982
H         43.46791      106.73408       56.24315
N         45.51698      109.63350       54.18637
C         46.19851      110.89250       53.93333
C         45.75658      111.52264       52.63716
O         45.29282      112.65436       52.65166
H         46.09843      108.79123       54.31411
H         47.29391      110.70825       53.88421
H         46.00652      111.59043       54.77737
N         45.87501      110.83782       51.46898
C         45.47065      111.39015       50.18057
C         43.97615      111.68241       50.18217
O         43.19432      110.81122       50.53648
C         45.82275      110.43109       49.01516
C         47.32907      110.14355       48.94084
O         45.43794      111.03269       47.80756
H         46.26600      109.88533       51.51041
H         46.03752      112.33126       49.99536
H         45.26456      109.47620       49.15504
H         45.41756      110.31904       47.11880
H         47.53496      109.49153       48.06799
H         47.89757      111.08944       48.81245
H         47.69813      109.62020       49.84435
N         43.51575      112.88186       49.72717
C         42.09772      113.22560       49.62046
C         41.57065      112.98890       48.20019
O         40.40597      113.27031       47.95699
C         41.81580      114.65617       50.19802
C         42.66687      115.77359       49.52870
C         42.01654      114.63577       51.72602
C         42.31324      117.19107       49.99720
H         44.20658      113.53534       49.33214
H         41.48323      112.52034       50.22295
H         40.74079      114.88272       50.02053
H         42.51341      115.73526       48.42957
H         43.74590      115.62358       49.74096
H         41.71044      115.59459       52.19040
H         41.37522      113.85165       52.18243
H         43.07520      114.42802       51.98666
H         41.24718      117.41754       49.78815
H         42.51365      117.32905       51.07954
H         42.94530      117.92783       49.45671
N         42.33710      112.37062       47.24974
C         41.86960      111.96657       45.92471
C         42.00244      110.45044       45.77014
O         43.07005      109.91643       46.02907
C         42.64808      112.71928       44.81966
C         44.16464      112.47443       44.81328
O         42.40729      114.09530       44.96544
H         43.30310      112.12383       47.47940
H         40.80072      112.24191       45.78311
H         42.23470      112.36732       43.84344
H         42.44111      114.49508       44.05739
H         44.62977      112.81428       45.76093
H         44.40341      111.40536       44.64667
H         44.62559      113.04548       43.98126
N         40.94956      109.69103       45.34657
C         41.00994      108.22838       45.21385
C         42.06863      107.75940       44.20463
O         42.70391      108.58263       43.56063
C         39.60710      107.64460       44.87371
C         39.09265      108.00709       43.46869
O         38.68576      108.00644       45.87277
H         40.06635      110.17718       45.13681
H         41.27506      107.81185       46.19981
H         39.65783      106.53770       44.89138
H         38.28136      108.88203       45.64188
H         39.78914      107.62971       42.69122
H         38.10421      107.52687       43.30279
H         38.97915      109.10323       43.34745
N         42.26262      106.42227       43.99173
C         43.12684      105.85575       42.96376
C         44.10076      104.78850       43.49480
O         44.94981      104.37346       42.71829
C         42.16987      105.31622       41.87503
C         42.79948      104.57660       40.68909
C         41.72811      104.36123       39.60279
C         42.19936      103.49072       38.42966
N         42.31767      102.08136       38.81067
H         41.67527      105.76227       44.50096
H         43.75000      106.65627       42.50767
H         41.61334      106.20063       41.49059
H         41.43024      104.62459       42.33928
H         43.19320      103.60764       41.05736
H         43.63250      105.16954       40.25314
H         41.45607      105.36487       39.20645
H         40.80935      103.90436       40.03227
H         43.16353      103.87140       38.02654
H         41.43752      103.56466       37.62187
H         41.39187      101.72758       39.14798
H         42.59642      101.52410       37.97148
H         43.03726      101.94772       39.55450
N         44.06970      104.29492       44.77388
C         45.01941      103.28361       45.25736
C         44.95577      102.02749       44.40633
O         43.90147      101.41461       44.30683
C         44.75394      102.92658       46.74830
C         45.60728      101.75016       47.28335
C         47.09142      101.97447       47.16762
O         47.75279      101.27458       46.41722
O         47.71619      102.90124       47.91830
H         43.35515      104.63633       45.42897
H         46.04679      103.70678       45.20044
H         43.68845      102.63749       46.86582
H         44.92832      103.82121       47.37587
H         45.33651      100.83579       46.71236
H         45.35508      101.55114       48.34678
N         46.08478      101.56602       43.79865
C         46.11273      100.33781       43.03765
H         47.14372      100.14914       42.66716
H         45.81438       99.48615       43.68609
H         45.42568      100.40996       42.16984
H         46.96869      102.08770       43.90187
Ca        46.70409      103.94383       49.64363
O         48.56023      107.06720       47.42277
H         47.85961      107.31578       46.76914
H         49.31107      107.68292       47.22810
O         50.28542      104.50052       47.28438
H         50.92632      105.17862       46.95319
H         49.68223      104.33451       46.51671
O         49.88443      106.74670       50.19368
H         50.75337      106.28830       50.31762
H         49.91812      107.51676       50.81527

Ca 1.0



