%chk=apoCaM-CA-Ng.loop1.water4.frame112.chk
%nprocshared=20
%mem=10GB
%nosave
#b3lyp/svp scf=(tight,noincore,xqc) Test 
#IOP(5/87=12) Density=Current Pop=(MK,readradii) iop(6/33=2) iop(6/42=6)

apoCaM-CA-Ng.loop1.water4.frame112 

   0  1 
C         59.24320       55.27546      103.37809
C         58.42603       54.04703      103.63994
O         58.17175       53.72268      104.79176
H         60.17090       54.98992      102.83826
H         58.66290       55.98474      102.75104
H         59.52081       55.77754      104.32857
N         57.96897       53.30814      102.59232
C         57.16231       52.10436      102.75435
C         57.91695       50.91595      103.36059
O         57.29650       49.88236      103.53954
C         56.49689       51.71528      101.40912
C         57.42261       51.38280      100.26949
O         56.94828       51.04071       99.19819
O         58.75759       51.47587      100.39640
H         58.16440       53.65773      101.64111
H         56.32772       52.34501      103.44138
H         55.84364       52.55384      101.08315
H         55.85160       50.83877      101.57972
N         59.23636       50.98238      103.71057
C         60.00034       49.84729      104.22407
C         60.46160       50.10796      105.64541
O         60.95001       51.19886      105.89596
C         61.22013       49.61109      103.31821
C         60.77509       49.07562      101.95683
C         61.96731       48.72894      101.06880
C         61.48570       48.12755       99.74304
N         62.61742       47.73917       98.90550
H         59.75176       51.86219      103.59181
H         59.41067       48.92465      104.20133
H         61.87579       48.84667      103.77703
H         61.81644       50.54373      103.21063
H         60.13661       49.81935      101.45084
H         60.17809       48.15543      102.12296
H         62.60555       47.98467      101.59384
H         62.56672       49.64489      100.87328
H         60.85659       48.86911       99.20157
H         60.86539       47.22764       99.94739
H         63.19569       47.02093       99.39978
H         62.25622       47.32698       98.01529
H         63.20404       48.57566       98.68356
N         60.43761       49.16210      106.64144
C         60.02041       47.76098      106.55394
C         60.77251       47.01022      105.45393
O         60.13978       46.48915      104.55182
C         58.47866       47.61430      106.46306
C         57.80458       48.34522      107.58519
O         58.09094       48.04014      108.86414
O         57.00749       49.23592      107.34220
H         60.82855       49.44443      107.55432
H         60.29595       47.26693      107.51311
H         58.20835       46.53885      106.53461
H         58.07121       47.98804      105.50810
N         62.13140       46.90853      105.41992
C         63.01713       47.50619      106.40193
C         64.45283       47.39538      105.93918
O         64.71060       47.80952      104.81656
H         62.54716       46.39983      104.62120
H         62.81921       47.04179      107.38675
H         62.81806       48.59076      106.46388
N         65.46880       46.87759      106.68509
C         65.37865       46.46357      108.08378
C         65.07032       44.97831      108.20019
O         64.93203       44.31026      107.18455
C         66.65720       46.88945      108.85676
C         67.93186       46.19494      108.43891
O         68.39892       46.35065      107.32248
O         68.59968       45.43677      109.32867
H         66.38782       46.84098      106.22517
H         64.56068       47.01671      108.58561
H         66.50135       46.68834      109.93696
H         66.79704       47.98777      108.75345
N         64.95254       44.38903      109.42699
C         64.69131       42.96891      109.59827
C         63.25816       42.55856      109.31081
O         63.00050       41.36371      109.33626
H         65.11624       44.94946      110.27508
H         64.89766       42.68205      110.65155
H         65.39659       42.39761      108.95467
N         62.26825       43.46657      109.06013
C         60.88967       43.09146      108.75679
C         60.59991       43.54744      107.34798
O         60.00893       44.59576      107.13700
C         59.89050       43.66850      109.78279
C         60.16537       43.12932      111.19041
O         58.59133       43.28926      109.39933
H         62.48876       44.47328      109.06368
H         60.74621       41.98694      108.78304
H         59.97943       44.77990      109.78674
H         57.96227       43.93868      109.80769
H         61.17735       43.42714      111.53449
H         59.41724       43.53954      111.90143
H         60.08977       42.01997      111.20287
N         61.07117       42.79396      106.32341
C         61.00091       43.15850      104.91114
C         59.58497       43.13245      104.30460
O         59.49317       43.24412      103.09355
C         62.03333       42.31051      104.09224
C         61.68785       40.79648      104.05398
C         63.45896       42.57281      104.63862
C         62.67144       39.97256      103.21716
H         61.58349       41.94156      106.58919
H         61.36761       44.19939      104.80119
H         62.02282       42.68877      103.04577
H         60.67902       40.67413      103.60594
H         61.66556       40.35856      105.07252
H         64.23382       42.10889      103.99838
H         63.66936       43.66378      104.65102
H         63.58865       42.18376      105.67007
H         62.33455       38.91557      103.18149
H         62.72773       40.36657      102.18075
H         63.68506       39.97673      103.66893
N         58.44402       43.03380      105.05552
C         57.08488       42.98395      104.49474
C         56.69235       44.15691      103.59293
O         55.76425       43.99295      102.81355
C         56.02510       42.86053      105.62434
C         56.00759       44.07904      106.57176
O         56.27873       41.69820      106.37118
H         58.53236       42.94834      106.07185
H         57.03769       42.07151      103.86033
H         55.02086       42.78991      105.13965
H         55.40070       41.28727      106.58464
H         55.21843       43.94848      107.34132
H         56.97606       44.20729      107.09792
H         55.78907       45.01646      106.02049
N         57.29267       45.37594      103.68532
C         56.93654       46.55618      102.88879
C         55.48952       47.00049      103.16321
O         54.78612       46.35251      103.92710
C         57.17353       46.32610      101.35745
C         58.48275       45.60296      101.04713
O         57.20592       47.56483      100.69453
H         58.03479       45.48537      104.38189
H         57.62135       47.37225      103.20169
H         56.34270       45.70119      100.95553
H         57.01674       47.39543       99.73509
H         58.61779       45.52709       99.94686
H         59.34826       46.13511      101.48442
H         58.44004       44.57291      101.43384
N         54.96049       48.07542      102.51793
C         53.54481       48.42269      102.55554
C         53.19550       49.17264      103.82168
O         52.27855       48.77091      104.52265
C         53.16486       49.29404      101.32937
C         53.48088       48.58861       99.99572
C         53.15145       49.48297       98.79313
C         53.47534       48.81724       97.44171
N         54.90788       48.55812       97.26744
H         55.56281       48.60699      101.88324
H         52.93114       47.49681      102.46681
H         53.70751       50.25957      101.36372
H         52.07596       49.52093      101.36639
H         52.90265       47.64145       99.92886
H         54.55781       48.34658       99.96110
H         53.71669       50.43813       98.86810
H         52.06527       49.71863       98.81424
H         53.14133       49.50524       96.63399
H         52.90626       47.86710       97.33907
H         55.24484       47.83537       97.94111
H         55.07164       48.19220       96.30194
H         55.45359       49.44222       97.38664
N         53.86299       50.31965      104.13171
C         53.47565       51.23081      105.19625
C         53.16504       52.56607      104.55072
O         54.03556       53.14099      103.91240
C         54.59021       51.33680      106.25449
C         54.20354       52.30814      107.38330
C         55.19991       52.28307      108.50375
O         56.36182       52.59775      108.30612
O         54.80632       51.92673      109.74172
H         54.65650       50.59690      103.53963
H         52.56747       50.85678      105.71776
H         55.54990       51.65952      105.79243
H         54.73201       50.32327      106.68808
H         53.21093       52.01954      107.79110
H         54.13360       53.34427      106.98638
N         51.92377       53.11015      104.64875
C         51.58223       54.34396      103.97625
H         50.52755       54.61336      104.19178
H         52.24517       55.16572      104.32043
H         51.69737       54.21284      102.87811
H         51.19574       52.63083      105.19868
Ca        57.16718       49.27168      110.51444
O         59.04347       51.28137      108.95505
H         58.93810       51.80579      108.12206
H         60.02207       51.17800      109.05989
O         55.14333       49.55470      112.70442
H         55.75723       50.06897      113.28666
H         54.33485       50.12126      112.63138
O         54.37693       48.05626      109.95544
H         53.79259       48.85550      109.97323
H         54.46371       47.83242      108.99488
O         56.98610       52.33492      111.77407
H         57.62959       51.98674      112.44098
H         57.53069       52.90664      111.17662

Ca 1.0



