%chk=apoCaM-CA-Ng.loop4.water6.frame525.chk
%nprocshared=20
%mem=10GB
%nosave
#b3lyp/svp scf=(tight,noincore,xqc) Test 
#IOP(5/87=12) Density=Current Pop=(MK,readradii) iop(6/33=2) iop(6/42=6)

apoCaM-CA-Ng.loop4.water6.frame525 

   -3  1 
C         93.18104       -9.50024       69.13973
C         93.43875      -10.72451       69.96197
O         93.49318      -10.62190       71.17420
H         93.05981       -8.60730       69.78954
H         94.04242       -9.32873       68.45946
H         92.25934       -9.64152       68.53917
N         93.65009      -11.91995       69.34534
C         93.97499      -13.18075       70.01110
C         92.78786      -13.70669       70.80437
O         92.93527      -14.00205       71.97939
C         95.24595      -13.05163       70.89643
C         96.28836      -12.17238       70.26969
O         96.62651      -11.15078       70.84254
O         96.79627      -12.42921       69.05519
H         93.62696      -11.93552       68.31395
H         94.19347      -13.91746       69.20597
H         95.65156      -14.06117       71.12535
H         94.97880      -12.57741       71.86703
N         91.57262      -13.87698       70.21087
C         90.37729      -14.30260       70.93996
C         90.07662      -15.75389       70.57980
O         90.06381      -16.06072       69.39627
C         89.18039      -13.35101       70.63665
C         89.50318      -11.92472       71.15880
C         87.87296      -13.87827       71.27235
C         88.43483      -10.88177       70.82422
H         91.48976      -13.70230       69.19762
H         90.58034      -14.21698       72.01771
H         89.03004      -13.32020       69.53496
H         90.45512      -11.57427       70.70697
H         89.63678      -11.95310       72.26339
H         87.63522      -14.89829       70.90538
H         87.94715      -13.90244       72.37961
H         87.00520      -13.25096       70.98958
H         87.46537      -11.11599       71.30840
H         88.75913       -9.89013       71.20399
H         88.29482      -10.81586       69.72510
N         89.85229      -16.73253       71.51410
C         89.66876      -16.50788       72.94957
C         90.90073      -16.85348       73.76863
O         91.00848      -16.30638       74.85162
C         88.36261      -17.15733       73.45255
C         88.29607      -18.63942       73.20593
O         87.41755      -19.09925       72.49259
O         89.19399      -19.46760       73.77061
H         89.75712      -17.70121       71.17130
H         89.49727      -15.44236       73.15916
H         87.51180      -16.67313       72.92135
H         88.23341      -16.95962       74.53824
N         91.90262      -17.65089       73.29334
C         93.17824      -17.90392       73.96457
C         93.07540      -18.67305       75.26980
O         93.39334      -19.85385       75.28210
H         91.78759      -18.07871       72.36344
H         93.73747      -16.95720       74.12280
H         93.78905      -18.52294       73.27045
N         92.69988      -18.05300       76.42300
C         92.57476      -18.71733       77.71527
C         91.11329      -18.78498       78.15482
O         90.85101      -19.28510       79.23990
C         93.51165      -18.02734       78.74264
C         93.32812      -16.53588       78.88314
O         92.28759      -16.06889       79.30812
O         94.33823      -15.70416       78.56274
H         92.49249      -17.04780       76.40224
H         92.90524      -19.77716       77.65345
H         94.55675      -18.19735       78.40404
H         93.40325      -18.50515       79.74037
N         90.10101      -18.36335       77.33532
C         88.68344      -18.45701       77.64277
C         88.21209      -17.55173       78.76065
O         87.01511      -17.54209       79.00456
H         90.32034      -18.01047       76.39966
H         88.42337      -19.51258       77.87632
H         88.11343      -18.16349       76.73464
N         89.07099      -16.78326       79.49436
C         88.68587      -15.96608       80.63904
C         87.89871      -14.72215       80.24121
O         87.40492      -14.04484       81.13282
C         87.98877      -16.82930       81.72351
C         88.87308      -18.02544       82.13221
C         88.22640      -18.87758       83.19096
N         87.07049      -19.53601       82.94015
O         88.76491      -18.99471       84.28145
H         90.06735      -16.80615       79.28147
H         89.61395      -15.57349       81.11294
H         87.00451      -17.19079       81.36615
H         87.80204      -16.20267       82.62262
H         89.84483      -17.63737       82.50969
H         89.07875      -18.67728       81.25697
H         86.61086      -19.46682       82.02062
H         86.63967      -20.12946       83.66456
N         87.83146      -14.29394       78.94215
C         87.15746      -13.06075       78.53247
C         88.11842      -12.02473       77.96962
O         87.64096      -10.96410       77.59308
C         86.08096      -13.34631       77.43955
C         86.68484      -13.89943       76.12830
C         84.98641      -14.27970       77.95465
H         88.31227      -14.83812       78.21222
H         86.65631      -12.58424       79.40364
H         85.58624      -12.38031       77.18920
H         87.44830      -13.20583       75.71475
H         87.15574      -14.89220       76.27801
H         85.89249      -14.00492       75.35815
H         85.40248      -15.27771       78.20268
H         84.51289      -13.84269       78.85883
H         84.20243      -14.39952       77.17602
N         89.45407      -12.26507       77.81306
C         90.29890      -11.38002       77.01762
C         91.40779      -10.77147       77.85575
O         91.57101      -11.15724       79.00241
C         90.85782      -12.23960       75.87104
C         91.44121      -11.49505       74.71118
N         92.34885      -12.11501       73.93680
O         91.05228      -10.37510       74.41520
H         89.87443      -13.13473       78.16977
H         89.68940      -10.55289       76.59745
H         90.04944      -12.86448       75.43346
H         91.60705      -12.95065       76.28941
H         92.66245      -13.06784       74.16763
H         92.73477      -11.64407       73.11514
N         92.19142       -9.77254       77.34489
C         93.28955       -9.17619       78.10663
C         93.82237       -7.90973       77.45366
O         93.41973       -7.58216       76.34802
C         94.43473      -10.21320       78.28557
C         95.35770      -10.40533       77.08436
C         94.88123      -10.55603       75.76666
C         96.74760      -10.43954       77.29961
C         95.77285      -10.72004       74.69780
C         97.63365      -10.62488       76.23703
C         97.15416      -10.76054       74.93491
O         98.03402      -10.92669       73.92779
H         91.95973       -9.40739       76.41623
H         92.87386       -8.88972       79.09716
H         94.01015      -11.19603       78.57121
H         95.05740       -9.89487       79.14900
H         93.82934      -10.52781       75.55203
H         97.15237      -10.33975       78.29799
H         95.38933      -10.81609       73.68895
H         98.69874      -10.66227       76.42634
H         97.75730      -11.01456       73.00798
N         94.76614       -7.15657       78.09268
C         95.40566       -6.01584       77.45389
C         96.90417       -6.26809       77.40586
O         97.52030       -6.25492       78.46166
C         95.11244       -4.69850       78.19776
C         93.62219       -4.33691       78.17353
C         93.39226       -3.00573       78.83104
O         93.71379       -2.82469       80.12637
O         92.91355       -2.08075       78.19398
H         95.06846       -7.42530       79.03983
H         95.00512       -5.89302       76.43835
H         95.67359       -3.88131       77.69072
H         95.46615       -4.76719       79.25039
H         93.03003       -5.11140       78.70551
H         93.27503       -4.28834       77.11734
N         97.59031       -6.55051       76.25681
C         96.98467       -6.75475       74.94106
C         96.31132       -5.51046       74.38329
O         96.44178       -4.43354       74.95111
C         98.03429       -7.29963       73.94279
C         99.16642       -6.30224       73.63462
C        100.17267       -6.91195       72.70474
O        100.39425       -6.40142       71.61866
O        100.85121       -8.01578       73.07389
H         98.60100       -6.72807       76.36316
H         96.20677       -7.54201       75.06282
H         97.53306       -7.57591       72.99248
H         98.46983       -8.22762       74.37178
H         99.69883       -6.00836       74.56162
H         98.74022       -5.38550       73.17247
N         95.52948       -5.60974       73.27363
C         94.80368       -4.48112       72.73569
H         94.09399       -4.09366       73.49844
H         95.50924       -3.67756       72.43944
H         94.22132       -4.79750       71.84394
H         95.41800       -6.52428       72.81004
Ca        98.04805      -10.72800       68.24588
O        100.69951       -9.86782       67.23948
H        100.47077      -10.66853       66.70373
H        101.40588      -10.17786       67.85977
O         96.93973       -8.31927       70.44881
H         96.14781       -8.35246       71.04283
H         97.16910       -7.35820       70.39077
O        100.10180       -9.34058       70.39296
H        101.00862       -9.73338       70.45478
H        100.22783       -8.50961       69.86985
O         97.82856      -12.11184       65.72498
H         97.42989      -11.37170       65.20217
H         97.08829      -12.43548       66.29771
O         98.21305       -7.66943       67.34253
H         98.03655       -7.54122       66.37667
H         99.15512       -7.38905       67.46225
O         99.68341      -12.37784       70.10714
H        100.65119      -12.40304       70.31191
H         99.47802      -13.27875       69.75176

Ca 1.0



