%chk=apoCaM-CA-Ng.loop4.water6.frame883.chk
%nprocshared=20
%mem=10GB
%nosave
#b3lyp/svp scf=(tight,noincore,xqc) Test 
#IOP(5/87=12) Density=Current Pop=(MK,readradii) iop(6/33=2) iop(6/42=6)

apoCaM-CA-Ng.loop4.water6.frame883 

   -3  1 
C        126.54508       13.11412        0.50459
C        127.56315       13.56938       -0.49859
O        127.36563       13.35412       -1.68464
H        125.69212       12.60995        0.00208
H        127.01104       12.40562        1.22028
H        126.15946       13.99273        1.06396
N        128.68487       14.21891       -0.07247
C        129.73953       14.75702       -0.92866
C        129.18123       15.85937       -1.81532
O        128.40575       15.57287       -2.71602
C        130.44764       13.63504       -1.71913
C        131.66238       14.08915       -2.48331
O        132.06700       15.37445       -2.46123
O        132.29942       13.27349       -3.13048
H        128.79762       14.35873        0.94392
H        130.49776       15.20411       -0.24672
H        129.74021       13.16126       -2.43155
H        130.78704       12.86526       -0.99604
N        129.50075       17.16313       -1.56784
C        128.90306       18.29001       -2.27719
C        130.00846       19.14463       -2.88843
O        130.87924       19.56791       -2.14030
C        128.07508       19.15928       -1.27935
C        127.05949       18.34231       -0.43517
C        127.37050       20.32135       -2.00853
C        125.95979       17.63243       -1.22789
H        130.14777       17.37652       -0.79287
H        128.20630       17.92362       -3.05383
H        128.78018       19.60665       -0.54265
H        126.57140       19.02854        0.29140
H        127.60863       17.58061        0.15911
H        126.66232       19.94298       -2.77464
H        126.81260       20.95045       -1.28348
H        128.10752       20.97459       -2.52040
H        126.38543       16.89727       -1.93574
H        125.30239       17.08394       -0.52048
H        125.33330       18.35757       -1.78438
N        130.05272       19.51267       -4.20385
C        129.06733       19.15173       -5.21983
C        129.26500       17.73827       -5.76244
O        128.52490       17.35537       -6.65859
C        129.03396       20.21721       -6.34265
C        130.29060       20.36991       -7.15779
O        130.32748       21.21468       -8.03818
O        131.37281       19.59942       -6.93729
H        130.80722       20.16325       -4.47321
H        128.04877       19.22589       -4.78416
H        128.80653       21.19912       -5.87008
H        128.19747       19.98151       -7.03681
N        130.20050       16.88549       -5.24856
C        130.34616       15.51604       -5.70861
C        131.08193       15.40926       -7.01900
O        131.52864       16.40920       -7.56415
H        130.78379       17.17183       -4.45151
H        129.34905       15.02732       -5.75926
H        130.95837       14.95324       -4.97703
N        131.26956       14.17459       -7.56002
C        132.05013       13.91789       -8.76273
C        131.18211       13.44959       -9.92139
O        131.73378       13.20085      -10.98476
C        133.21155       12.94806       -8.41903
C        132.80032       11.65780       -7.75273
O        133.21366       11.39115       -6.49880
O        132.12260       10.83563       -8.34004
H        130.84338       13.36511       -7.08148
H        132.52532       14.85389       -9.12977
H        133.88219       13.47928       -7.70990
H        133.80488       12.71832       -9.33052
N        129.81896       13.36792       -9.83031
C        128.97417       13.00902      -10.96138
C        129.13596       11.57464      -11.42155
O        128.48513       11.20797      -12.38867
H        129.34220       13.62149       -8.95360
H        129.19022       13.70048      -11.80493
H        127.90775       13.14407      -10.67637
N        129.95525       10.69727      -10.77042
C        130.14264        9.30040      -11.13530
C        128.87726        8.48095      -10.90829
O        128.83898        7.33119      -11.32258
C        130.75978        9.16413      -12.55033
C        132.08887        9.94419      -12.63312
C        132.84288        9.68608      -13.91157
N        132.31826       10.01346      -15.11433
O        133.95726        9.18681      -13.85661
H        130.46994       11.01479       -9.95022
H        130.89194        8.85515      -10.44277
H        130.06160        9.51373      -13.33922
H        130.97075        8.08766      -12.73282
H        132.73605        9.63877      -11.78100
H        131.89589       11.03415      -12.54505
H        131.38672       10.44592      -15.18611
H        132.85324        9.83861      -15.97847
N        127.84072        8.98081      -10.16703
C        126.62599        8.24083       -9.84796
C        126.45056        8.05645       -8.34357
O        125.42988        7.49230       -7.96734
C        125.37671        8.97681      -10.42317
C        125.16660       10.37806       -9.81393
C        125.43952        9.07193      -11.95128
H        127.91156        9.92822       -9.77556
H        126.65493        7.22401      -10.29844
H        124.47764        8.36882      -10.17487
H        125.07462       10.31974       -8.70906
H        126.00060       11.06447      -10.06611
H        124.22713       10.82408      -10.20239
H        125.52855        8.05737      -12.39378
H        124.50958        9.53917      -12.34058
H        126.30513        9.68417      -12.27597
N        127.35771        8.49694       -7.41432
C        127.05191        8.42932       -5.98570
C        128.26354        8.65563       -5.08662
O        129.25555        9.24351       -5.49531
C        125.97263        9.50175       -5.67168
C        125.52017        9.53306       -4.23384
N        125.73158       10.63096       -3.46851
O        124.95028        8.56270       -3.75842
H        128.25595        8.89716       -7.72061
H        126.69062        7.39887       -5.76732
H        125.07190        9.34727       -6.30012
H        126.39804       10.49309       -5.94675
H        126.21249       11.45938       -3.84971
H        125.42010       10.65381       -2.48643
N        128.20993        8.18569       -3.80751
C        129.22653        8.40002       -2.78538
C        128.86653        7.59456       -1.54772
O        127.77708        7.78082       -1.01898
C        129.29537        9.89695       -2.39033
C        130.14705       10.09492       -1.15152
C        129.55007       10.54152        0.04128
C        131.51799        9.79100       -1.15753
C        130.30636       10.67363        1.20721
C        132.27447        9.92461        0.01235
C        131.67197       10.36100        1.19803
O        132.41077       10.46938        2.32071
H        127.37705        7.63653       -3.54327
H        130.21873        8.06275       -3.15699
H        128.25954       10.23987       -2.17251
H        129.67980       10.51683       -3.22729
H        128.49339       10.77029        0.07491
H        131.99679        9.43874       -2.06200
H        129.82683       11.00948        2.11806
H        133.32866        9.67892       -0.00002
H        132.02716       10.75286        3.16321
N        129.76960        6.73362       -0.99421
C        129.50967        6.01501        0.24363
C        130.47315        6.49673        1.32315
O        131.66927        6.30592        1.15114
C        129.65986        4.49485        0.04741
C        128.61881        3.93130       -0.92634
C        128.74075        2.43784       -1.02553
O        127.70978        1.65205       -0.65972
O        129.77178        1.92840       -1.43525
H        130.69518        6.62197       -1.43636
H        128.47087        6.19488        0.55368
H        129.51578        3.99499        1.03050
H        130.68590        4.25832       -0.31283
H        128.75117        4.37824       -1.93459
H        127.60109        4.18457       -0.55595
N        130.07179        7.13915        2.46548
C        128.69015        7.51431        2.77008
C        127.76293        6.31471        2.89332
O        128.22567        5.18322        2.94737
C        128.60753        8.36937        4.05870
C        129.01818        7.59721        5.32835
C        128.83606        8.44443        6.55202
O        129.51742        9.59643        6.69052
O        128.06771        8.09036        7.43233
H        130.81387        7.43202        3.11975
H        128.33657        8.14511        1.92405
H        127.56101        8.72390        4.18410
H        129.25310        9.26758        3.94312
H        130.07957        7.27969        5.27004
H        128.38851        6.68735        5.43366
N        126.41601        6.50420        2.90737
C        125.48518        5.40015        2.96449
H        124.44329        5.78373        2.93563
H        125.63962        4.73267        2.08909
H        125.63339        4.82577        3.90243
H        126.03633        7.46097        2.84378
Ca       129.17627       10.83381        8.54667
O        130.28080        8.28681        9.90611
H        129.76959        7.43984        9.94446
H        131.02603        8.15838       10.54512
O        132.11010       10.87140        9.21982
H        132.82378       11.44408        8.84228
H        132.42070       10.65415       10.13436
O        129.69897       11.32301       11.70501
H        129.07393       12.08256       11.81830
H        130.59771       11.73785       11.71909
O        130.67026       13.18827        7.32027
H        130.68895       13.48231        8.26577
H        130.09191       13.85063        6.86539
O        127.60061       13.19322        9.42664
H        126.81159       13.34294       10.00532
H        128.24196       13.90060        9.68854
O        126.89570        9.94790       10.48755
H        126.94990       10.40101       11.36623
H        126.45992        9.08038       10.68156

Ca 1.0



