%chk=apoCaM-CA-Ng.loop1.water6.frame647.chk
%nprocshared=20
%mem=10GB
%nosave
#b3lyp/svp scf=(tight,noincore,xqc) Test 
#IOP(5/87=12) Density=Current Pop=(MK,readradii) iop(6/33=2) iop(6/42=6)

apoCaM-CA-Ng.loop1.water6.frame647 

   0  1 
C        -15.84984       33.77989       34.64864
C        -17.30321       33.52834       34.38558
O        -17.84427       34.09898       33.44927
H        -15.43628       34.49609       33.90562
H        -15.72407       34.20975       35.66366
H        -15.28610       32.82679       34.57907
N        -18.00789       32.66579       35.17223
C        -19.42685       32.39887       34.94748
C        -20.27648       33.64402       35.12334
O        -19.78654       34.63919       35.63747
C        -19.93980       31.22313       35.81496
C        -19.71915       31.28174       37.31368
O        -20.06618       30.32106       37.98138
O        -19.05472       32.28013       37.93159
H        -17.50491       32.17096       35.92408
H        -19.53829       32.08436       33.88568
H        -19.41106       30.30938       35.46676
H        -21.02351       31.07415       35.61956
N        -21.55831       33.66888       34.64823
C        -22.43040       34.83211       34.76241
C        -23.68394       34.40588       35.49150
O        -24.37164       33.50908       35.02320
C        -22.72573       35.42123       33.36694
C        -23.20607       36.88424       33.45511
C        -23.28432       37.53422       32.06428
C        -23.40844       39.06275       32.17154
N        -23.45510       39.68070       30.84597
H        -21.92292       32.83423       34.16333
H        -21.90460       35.62177       35.34261
H        -23.42368       34.77859       32.78786
H        -21.76529       35.44238       32.81121
H        -22.45327       37.44704       34.04559
H        -24.17987       36.96773       33.98375
H        -24.13661       37.10128       31.49763
H        -22.34729       37.32391       31.50373
H        -22.52035       39.45762       32.71743
H        -24.32037       39.33807       32.74423
H        -22.60774       39.41713       30.29128
H        -24.31709       39.37540       30.33934
H        -23.47256       40.72092       30.95250
N        -24.00635       34.97145       36.68285
C        -25.07040       34.48008       37.55523
C        -25.24933       35.47829       38.69581
O        -24.90855       35.16732       39.82841
C        -24.76890       33.02982       38.03052
C        -23.42423       32.80847       38.67095
O        -22.62321       33.71826       38.79762
O        -23.09105       31.57203       39.08616
H        -23.42672       35.75931       37.01495
H        -26.03809       34.40215       37.01856
H        -24.82125       32.34554       37.15863
H        -25.56435       32.71326       38.73893
N        -25.76677       36.72738       38.48598
C        -26.36685       37.17236       37.23303
C        -25.70586       38.36327       36.59356
O        -26.21152       38.78238       35.56072
H        -25.81429       37.37688       39.28693
H        -27.42592       37.43419       37.44426
H        -26.37755       36.38792       36.45952
N        -24.60888       38.98276       37.11481
C        -24.04555       40.17575       36.48845
C        -22.53454       40.21311       36.56396
O        -21.93180       39.39410       37.24077
C        -24.67861       41.42876       37.12220
C        -24.45742       41.49556       38.61117
O        -23.21126       41.58476       39.11387
O        -25.41168       41.46951       39.37202
H        -24.22290       38.66271       38.01553
H        -24.29301       40.17779       35.40289
H        -25.77264       41.39774       36.92149
H        -24.27745       42.34931       36.64855
N        -21.85274       41.14997       35.85163
C        -20.41207       41.29333       35.89706
C        -19.80394       40.74739       34.63897
O        -20.17513       41.18991       33.55941
H        -22.37587       41.77689       35.21983
H        -19.97983       40.76982       36.77599
H        -20.16514       42.37126       36.00955
N        -18.83466       39.78867       34.70842
C        -18.17587       39.23766       33.53276
C        -16.73639       39.68288       33.50302
O        -16.22168       40.15873       34.50993
C        -18.24717       37.69392       33.53262
C        -19.68093       37.19641       33.59410
O        -17.64809       37.18194       32.36801
H        -18.51726       39.46420       35.63609
H        -18.66104       39.63081       32.61150
H        -17.71798       37.31924       34.44368
H        -17.01725       36.46688       32.64351
H        -20.25338       37.57197       32.72193
H        -19.67826       36.09032       33.56991
H        -20.16659       37.52809       34.53568
N        -16.03147       39.59756       32.34381
C        -14.65161       40.04028       32.22565
C        -14.59543       41.51246       32.60425
O        -13.87772       41.86968       33.52250
C        -14.08306       39.80348       30.78723
C        -14.28886       38.35630       30.24959
C        -12.59171       40.18367       30.73518
C        -13.75902       37.24339       31.15416
H        -16.52268       39.24021       31.51263
H        -14.03095       39.45156       32.93883
H        -14.61479       40.46627       30.06950
H        -13.80804       38.27267       29.25045
H        -15.36631       38.15900       30.07967
H        -12.19631       40.05063       29.70589
H        -12.44607       41.24827       31.01366
H        -11.99525       39.55853       31.43164
H        -14.28635       37.24968       32.13085
H        -13.95500       36.26217       30.67181
H        -12.66788       37.34133       31.31683
N        -15.37574       42.40528       31.92900
C        -15.46252       43.83305       32.25096
C        -16.04157       44.61447       31.07026
O        -16.38480       44.02765       30.05749
C        -16.26899       44.07762       33.56243
C        -17.69092       43.51585       33.48870
O        -15.62233       43.50023       34.66516
H        -15.93501       42.03445       31.15026
H        -14.43161       44.23183       32.36969
H        -16.36743       45.17104       33.75079
H        -14.86224       44.09648       34.89687
H        -18.25919       43.98378       32.65855
H        -17.66568       42.41780       33.33598
H        -18.22590       43.72298       34.44055
N        -16.10125       45.97859       31.12120
C        -16.44737       46.79174       29.95961
C        -15.21680       47.59713       29.58890
O        -14.71655       47.44452       28.48148
C        -17.74169       47.63374       30.18002
C        -17.68354       48.76812       31.21538
O        -18.81747       46.77686       30.47263
H        -15.81307       46.45738       31.98372
H        -16.68596       46.14115       29.08945
H        -17.97626       48.12929       29.21198
H        -18.69043       46.43701       31.39731
H        -17.41903       48.38195       32.22167
H        -16.96829       49.55544       30.90225
H        -18.67635       49.26261       31.27608
N        -14.65102       48.44387       30.49081
C        -13.45507       49.23114       30.25387
C        -12.49129       49.00115       31.40290
O        -12.90091       49.13034       32.55070
C        -13.86777       50.70479       30.14137
C        -12.68439       51.61083       29.77791
C        -13.16797       53.03975       29.51615
C        -12.00261       53.95773       29.13264
N        -12.48174       55.30889       28.84481
H        -15.09557       48.55638       31.41276
H        -12.97966       48.95588       29.28534
H        -14.34611       51.05229       31.08376
H        -14.62018       50.77398       29.32357
H        -12.19890       51.22594       28.85339
H        -11.93799       51.60508       30.60198
H        -13.66798       53.43669       30.42640
H        -13.90395       53.02439       28.68158
H        -11.48950       53.55351       28.23131
H        -11.26934       53.99433       29.96869
H        -11.66758       55.91595       28.59726
H        -13.14593       55.28825       28.03666
H        -12.96134       55.70763       29.68437
N        -11.18638       48.68619       31.17968
C        -10.26021       48.43141       32.27793
C        -10.59237       47.11296       32.97006
O        -10.86957       47.16241       34.15979
C         -8.77974       48.49723       31.83949
C         -8.40685       49.91017       31.36094
C         -6.95847       49.98460       30.97590
O         -6.64101       50.29837       29.83994
O         -6.00110       49.71978       31.88572
H        -10.84161       48.66990       30.20763
H        -10.36725       49.25087       33.02743
H         -8.54510       47.76448       31.04452
H         -8.14551       48.25503       32.72175
H         -8.59055       50.64254       32.17756
H         -9.03622       50.19431       30.49038
N        -10.59861       45.88875       32.35836
C        -10.34048       45.61872       30.95776
H         -9.45735       44.95180       30.86890
H        -11.22064       45.10481       30.51859
H        -10.15915       46.51870       30.35395
H        -10.81799       45.06407       32.93890
Ca       -19.85850       34.34308       38.34241
O        -20.59433       31.73011       41.15587
H        -19.99413       31.06604       40.73302
H        -20.79295       32.37683       40.43359
O        -17.86097       33.39889       40.84783
H        -17.07024       33.76113       41.32087
H        -17.72089       32.41874       40.84502
O        -21.65027       34.96953       41.29094
H        -22.12381       34.88371       42.15547
H        -22.25124       35.52730       40.73688
O        -17.55133       36.20146       37.71296
H        -17.04779       35.36902       37.52884
H        -17.47042       36.73088       36.88065
O        -21.08531       36.90988       38.77451
H        -20.51792       37.39163       38.12164
H        -21.83126       37.52726       38.97857
O        -18.86343       36.42932       40.89589
H        -17.94581       36.77832       41.02320
H        -19.24691       36.40052       41.80832

Ca 1.0



