%chk=apoCaM-CA-Ng.loop4.water5.frame672.chk
%nprocshared=20
%mem=10GB
%nosave
#b3lyp/svp scf=(tight,noincore,xqc) Test 
#IOP(5/87=12) Density=Current Pop=(MK,readradii) iop(6/33=2) iop(6/42=6)

apoCaM-CA-Ng.loop4.water5.frame672 

   -3  1 
C        -22.98295       54.06419      108.90277
C        -23.14654       54.59968      110.29173
O        -23.09172       55.80814      110.47048
H        -22.10583       53.38511      108.86724
H        -23.89596       53.50531      108.60999
H        -22.82324       54.89320      108.17952
N        -23.36081       53.74424      111.33439
C        -23.52848       54.17716      112.71756
C        -24.74024       55.08340      112.81526
O        -24.59571       56.25684      113.13388
C        -22.24039       54.84273      113.26551
C        -21.05855       53.91411      113.21894
O        -20.44322       53.54836      114.35958
O        -20.63792       53.50289      112.14970
H        -23.41440       52.73270      111.13930
H        -23.72060       53.28778      113.35964
H        -22.41957       55.12962      114.32544
H        -21.98930       55.76638      112.70446
N        -25.98386       54.58518      112.55006
C        -27.18964       55.41349      112.55920
C        -28.02155       55.10879      113.79662
O        -27.78645       54.07368      114.40663
C        -27.96317       55.26838      111.19963
C        -28.54491       53.85523      110.88801
C        -27.03057       55.67453      110.04354
C        -29.75643       53.44819      111.73211
H        -26.07375       53.57708      112.35446
H        -26.87680       56.46642      112.65340
H        -28.80947       55.98020      111.17124
H        -27.75960       53.07336      110.94579
H        -28.92113       53.86128      109.84103
H        -26.64983       56.70609      110.19620
H        -26.16797       54.97915      109.96125
H        -27.58044       55.65553      109.07767
H        -30.56521       54.20278      111.62812
H        -30.14298       52.47229      111.36836
H        -29.51576       53.31387      112.79847
N        -28.99600       55.93601      114.28744
C        -29.31893       57.28222      113.80932
C        -28.13448       58.21345      114.03110
O        -27.66600       58.82714      113.08210
C        -30.56026       57.81230      114.55882
C        -30.98423       59.16772      114.06571
O        -31.30308       59.32637      112.89788
O        -31.02544       60.21152      114.91513
H        -29.51851       55.58856      115.10821
H        -29.59094       57.24664      112.73687
H        -30.35480       57.86148      115.65039
H        -31.40593       57.10754      114.40081
N        -27.56305       58.31031      115.26359
C        -26.34108       59.04980      115.51875
C        -26.52021       60.54839      115.52487
O        -27.26070       61.04402      116.36273
H        -27.94877       57.74619      116.03624
H        -25.55748       58.72712      114.80012
H        -25.97620       58.78482      116.53569
N        -25.78686       61.33876      114.68580
C        -25.68669       62.78952      114.84397
C        -26.23766       63.60461      113.68090
O        -26.25400       64.82105      113.81651
C        -24.21638       63.15713      115.17941
C        -23.19133       62.62173      114.20768
O        -22.25628       61.75146      114.63516
O        -23.18563       62.97107      113.04188
H        -25.19590       60.88537      113.97236
H        -26.29517       63.12038      115.71400
H        -23.98024       62.71767      116.17262
H        -24.10411       64.25945      115.26874
N        -26.74515       63.05347      112.53854
C        -27.35347       63.87260      111.48822
C        -26.39780       64.83971      110.79449
O        -26.85152       65.60780      109.95938
H        -26.75375       62.02962      112.42310
H        -28.18748       64.45292      111.93920
H        -27.78588       63.20798      110.70895
N        -25.06379       64.83349      111.06260
C        -24.04787       65.66346      110.43117
C        -23.97882       65.42386      108.93420
O        -23.84965       66.37274      108.17196
C        -24.15523       67.16100      110.80461
C        -24.03357       67.39852      112.31852
C        -23.87884       68.86918      112.62389
N        -24.77089       69.52322      113.40270
O        -22.91847       69.47582      112.17155
H        -24.70726       64.14809      111.72866
H        -23.06626       65.31137      110.82221
H        -25.10305       67.60367      110.42745
H        -23.30625       67.68179      110.30846
H        -23.12889       66.88317      112.70712
H        -24.92334       66.97557      112.83149
H        -25.58522       69.03646      113.80267
H        -24.64203       70.52559      113.60924
N        -24.03271       64.15081      108.44884
C        -23.82114       63.82075      107.04120
C        -22.74634       62.75311      106.84893
O        -22.33616       62.57226      105.70995
C        -25.13917       63.36638      106.35470
C        -25.75261       62.12115      107.01820
C        -26.16701       64.50415      106.32172
H        -24.24933       63.39617      109.11320
H        -23.45733       64.72379      106.50173
H        -24.90630       63.11207      105.29606
H        -25.03303       61.27698      107.01164
H        -26.05005       62.33117      108.06717
H        -26.65645       61.79929      106.45918
H        -27.07515       64.18021      105.76959
H        -26.46336       64.80493      107.34761
H        -25.74301       65.38606      105.79548
N        -22.30664       61.94822      107.86643
C        -21.38503       60.83568      107.65795
C        -20.22930       60.92674      108.64298
O        -20.36783       61.60360      109.65512
C        -22.20202       59.53574      107.82329
C        -21.51631       58.29021      107.32060
N        -22.04158       57.60064      106.27798
O        -20.49833       57.88654      107.85993
H        -22.69593       62.04596      108.81214
H        -20.98555       60.87186      106.62102
H        -23.13169       59.66295      107.22670
H        -22.51243       59.40557      108.88334
H        -22.90585       57.91714      105.81219
H        -21.58601       56.74520      105.92931
N        -19.03155       60.32104      108.39318
C        -17.90891       60.43991      109.32750
C        -16.58983       59.98364      108.69842
O        -16.59031       59.48558      107.58020
C        -18.20925       59.61156      110.60877
C        -17.48444       60.11492      111.83494
C        -16.42046       59.40210      112.40765
C        -17.90452       61.31200      112.43887
C        -15.78394       59.87634      113.55752
C        -17.27784       61.77998      113.59707
C        -16.21526       61.06625      114.15997
O        -15.61891       61.53157      115.27587
H        -18.91807       59.83151      107.49359
H        -17.80571       61.52227      109.56582
H        -17.99363       58.54089      110.39805
H        -19.28718       59.64482      110.87416
H        -16.06813       58.49444      111.95698
H        -18.73223       61.87257      112.02251
H        -14.95808       59.31702      113.97915
H        -17.62215       62.69653      114.05888
H        -14.88099       61.06748      115.69634
N        -15.41128       60.14204      109.36678
C        -14.11426       59.74747      108.83189
C        -13.43120       58.77571      109.80601
O        -12.42034       59.14333      110.38849
C        -13.30418       61.04453      108.59207
C        -11.97376       60.81162      107.85743
C        -11.26856       62.11777      107.62693
O        -10.89124       62.87634      108.67434
O        -11.02914       62.49605      106.49136
H        -15.41654       60.60882      110.28380
H        -14.21850       59.26164      107.84071
H        -13.12752       61.56025      109.56231
H        -13.91946       61.71834      107.95380
H        -12.17806       60.32013      106.88059
H        -11.30008       60.15458      108.44266
N        -13.90495       57.52014      110.08325
C        -15.07494       56.90047      109.46270
C        -14.83760       56.62458      107.98677
O        -13.72445       56.78913      107.50487
C        -15.43932       55.56805      110.17042
C        -15.87396       55.78155      111.62832
C        -16.29524       54.49832      112.27522
O        -17.33181       53.80582      111.76623
O        -15.73114       54.09975      113.28138
H        -13.38710       56.97385      110.78987
H        -15.93971       57.57934      109.56886
H        -14.57400       54.86931      110.12803
H        -16.29250       55.09229      109.64090
H        -16.75713       56.45100      111.64823
H        -15.04851       56.24055      112.21416
N        -15.86952       56.19391      107.20686
C        -15.73981       55.89445      105.79576
H        -16.41669       56.55713      105.21720
H        -14.70375       56.03764      105.42393
H        -16.03293       54.83851      105.61827
H        -16.80420       56.07959      107.62663
Ca       -18.09922       51.91923      112.73893
O        -17.13927       52.21487      115.63134
H        -17.76670       51.55006      116.01145
H        -17.70238       53.00740      115.44308
O        -15.23265       51.18493      112.17610
H        -15.18325       51.46880      113.12341
H        -14.66495       50.37573      112.13132
O        -18.90811       52.66180      109.46249
H        -18.10650       52.78193      108.89372
H        -19.21885       53.58325      109.64958
O        -17.78769       48.92460      112.24291
H        -18.12094       49.08619      111.32457
H        -18.57739       48.59030      112.73763
O        -20.16831       50.28707      114.41948
H        -19.43306       49.87752      114.94120
H        -20.89859       50.41335      115.07572

Ca 1.0



