%chk=apoCaM-CA-Ng.loop1.water4.frame715.chk
%nprocshared=20
%mem=10GB
%nosave
#b3lyp/svp scf=(tight,noincore,xqc) Test 
#IOP(5/87=12) Density=Current Pop=(MK,readradii) iop(6/33=2) iop(6/42=6)

apoCaM-CA-Ng.loop1.water4.frame715 

   0  1 
C         53.75983      118.61849       -5.02324
C         55.11742      119.03101       -5.51450
O         55.20619      120.02269       -6.22458
H         53.08704      118.45151       -5.89080
H         53.80718      117.67818       -4.43372
H         53.33615      119.41795       -4.38116
N         56.22178      118.30003       -5.19186
C         57.57428      118.61748       -5.66279
C         58.55509      117.47754       -5.38515
O         58.19132      116.52378       -4.70618
C         58.04998      119.98580       -5.10463
C         58.01400      120.11789       -3.60033
O         58.23115      121.21171       -3.10163
O         57.69024      119.08206       -2.79640
H         56.07053      117.46369       -4.60817
H         57.53372      118.68516       -6.77188
H         57.38434      120.77548       -5.50942
H         59.07170      120.22255       -5.46908
N         59.80800      117.47585       -5.93535
C         60.70958      116.32970       -5.82301
C         61.89665      116.64037       -4.95361
O         62.62876      117.58086       -5.23470
C         61.26210      115.85069       -7.17523
C         60.18999      115.48385       -8.20281
C         60.80111      114.77836       -9.43295
C         61.38473      113.37173       -9.15300
N         60.36600      112.43226       -8.67676
H         60.11936      118.29363       -6.48295
H         60.16701      115.46126       -5.38678
H         61.87219      114.95437       -6.93797
H         61.93549      116.61510       -7.62370
H         59.69885      116.42581       -8.52995
H         59.40847      114.84178       -7.75152
H         61.60372      115.42111       -9.85854
H         60.01104      114.67054      -10.20533
H         62.22265      113.41136       -8.42639
H         61.81051      112.98050      -10.10293
H         59.58331      112.37057       -9.36774
H         60.79619      111.48546       -8.56999
H         59.99738      112.72091       -7.74340
N         62.16346      115.84006       -3.88930
C         63.31870      116.00095       -3.02052
C         64.05859      114.67112       -2.87661
O         63.43053      113.63489       -3.05153
C         62.79499      116.53468       -1.67160
C         61.77724      115.62176       -1.02772
O         62.14721      114.56256       -0.54815
O         60.45639      115.92538       -0.98586
H         61.49857      115.08065       -3.66951
H         64.01345      116.75737       -3.44383
H         62.30724      117.50218       -1.88245
H         63.62466      116.72997       -0.96062
N         65.36495      114.56656       -2.49847
C         66.30944      115.66022       -2.34022
C         66.83098      116.15955       -3.67059
O         66.33888      115.75642       -4.71186
H         65.73214      113.61910       -2.32099
H         67.20177      115.24968       -1.81888
H         65.89766      116.47417       -1.71014
N         67.88289      117.02502       -3.69827
C         68.50723      117.49562       -4.93243
C         69.12257      116.32842       -5.70317
O         68.79002      116.14477       -6.86569
C         69.56041      118.58019       -4.60253
C         70.12003      119.23627       -5.83538
O         71.44611      119.22226       -6.06782
O         69.37800      119.81478       -6.61394
H         68.26067      117.35313       -2.79553
H         67.72810      117.98630       -5.55771
H         70.38529      118.15152       -3.99262
H         69.07048      119.37789       -4.00161
N         70.02627      115.49452       -5.11013
C         70.67311      114.37891       -5.79226
C         69.77036      113.19935       -6.13224
O         70.29791      112.23260       -6.66405
H         70.30449      115.67891       -4.13418
H         71.45993      113.97159       -5.11908
H         71.17936      114.75090       -6.70930
N         68.43556      113.17048       -5.84190
C         67.58399      111.99884       -6.06641
C         66.99225      111.53172       -4.73998
O         67.28074      112.12813       -3.71100
C         66.49820      112.29134       -7.14028
C         65.49098      113.37436       -6.75618
O         67.11975      112.66729       -8.34400
H         67.99960      113.99082       -5.40687
H         68.18312      111.15004       -6.46189
H         65.89852      111.36557       -7.30363
H         67.16186      111.86220       -8.92378
H         65.99606      114.35244       -6.66302
H         64.72642      113.46608       -7.55751
H         64.97050      113.11750       -5.80930
N         66.14353      110.46518       -4.68920
C         65.54438      109.99155       -3.44306
C         66.56597      109.22193       -2.61588
O         66.44470      109.23151       -1.39825
C         64.25074      109.16354       -3.72205
C         63.21635      110.06694       -4.45558
C         63.64372      108.60423       -2.41630
C         61.94207      109.34258       -4.88987
H         65.89254      109.98904       -5.56714
H         65.21814      110.87917       -2.85171
H         64.51859      108.30215       -4.37332
H         63.66843      110.48433       -5.37929
H         62.93627      110.92215       -3.80174
H         64.35768      107.93375       -1.89720
H         63.35829      109.43053       -1.73022
H         62.75286      107.97924       -2.62072
H         61.36732      108.96509       -4.02128
H         61.28664      110.05540       -5.43398
H         62.19260      108.50019       -5.56800
N         67.61001      108.55666       -3.19774
C         68.62883      107.84484       -2.42531
C         68.72977      106.39589       -2.90080
O         68.03260      106.03182       -3.83924
C         70.00315      108.56039       -2.59534
C         69.90681      110.09439       -2.61183
O         70.89982      108.15523       -1.59078
H         67.71565      108.58119       -4.22340
H         68.36124      107.85771       -1.34646
H         70.43678      108.28598       -3.58198
H         70.58038      108.54352       -0.73178
H         69.41826      110.47868       -1.69282
H         70.92321      110.53195       -2.70164
H         69.33052      110.42595       -3.50012
N         69.63042      105.53134       -2.34454
C         69.91356      104.21085       -2.89960
C         69.69269      103.12214       -1.85134
O         68.90229      102.22121       -2.09534
C         71.34699      104.23759       -3.49832
C         71.65204      103.03162       -4.38574
O         72.32260      104.33267       -2.49016
H         70.20358      105.84921       -1.55156
H         69.23358      104.00423       -3.75662
H         71.40329      105.12347       -4.17947
H         72.75825      105.22079       -2.56889
H         72.66894      103.14445       -4.82197
H         71.60802      102.08580       -3.80950
H         70.92626      102.98731       -5.22681
N         70.35623      103.14776       -0.65824
C         70.20559      102.13796        0.38799
C         70.37543      102.79102        1.75127
O         71.38599      103.44267        1.98137
C         71.25927      101.02814        0.19857
C         71.19032       99.95082        1.30376
C         72.32840       98.93492        1.15324
C         72.34701       97.93191        2.31724
N         73.53606       97.08175        2.25119
H         71.01916      103.91640       -0.48538
H         69.20207      101.65935        0.32734
H         72.26899      101.49252        0.20617
H         71.10405      100.54273       -0.79044
H         70.20310       99.43784        1.28490
H         71.31291      100.43689        2.29568
H         73.28898       99.49373        1.16088
H         72.23698       98.39206        0.18696
H         71.42928       97.30253        2.29255
H         72.36413       98.48515        3.28280
H         73.53681       96.52289        1.36780
H         74.39806       97.67403        2.29369
H         73.54154       96.43201        3.07038
N         69.43566      102.61531        2.72054
C         69.56593      103.16157        4.06377
C         68.96533      104.56150        4.14065
O         69.70758      105.46624        4.49624
C         69.04997      102.14765        5.11023
C         69.17971      102.66985        6.54987
C         68.89634      101.58339        7.54842
O         67.81291      101.02135        7.56425
O         69.84566      101.22363        8.43428
H         68.62738      102.00950        2.51564
H         70.64936      103.26316        4.31056
H         69.67107      101.22949        5.00550
H         67.99911      101.85471        4.92271
H         68.47102      103.51170        6.70898
H         70.21298      103.04065        6.72205
N         67.67560      104.87742        3.82367
C         66.68076      103.94788        3.33800
H         65.73162      104.48986        3.14346
H         67.00099      103.50358        2.37589
H         66.47089      103.16648        4.09038
H         67.38549      105.86396        3.91245
Ca        59.21088      117.57866       -1.97150
O         56.14613      116.10228       -2.08648
H         55.16196      116.01657       -2.15467
H         56.39200      115.53829       -1.31065
O         56.13557      118.68666       -0.07387
H         55.88884      119.63970       -0.18037
H         56.28666      118.57651        0.89855
O         59.17944      119.02774        0.70139
H         58.57310      119.73089        1.04509
H         59.41941      118.49349        1.49959
O         61.17240      119.58552       -2.48346
H         60.49588      120.30343       -2.50727
H         60.99595      119.04683       -3.29604

Ca 1.0



