%chk=apoCaM-CA-Ng.loop1.water3.frame494.chk
%nprocshared=20
%mem=10GB
%nosave
#b3lyp/svp scf=(tight,noincore,xqc) Test 
#IOP(5/87=12) Density=Current Pop=(MK,readradii) iop(6/33=2) iop(6/42=6)

apoCaM-CA-Ng.loop1.water3.frame494 

   0  1 
C         53.87593       44.15508       61.64368
C         54.53821       45.00784       60.59679
O         54.03080       46.07492       60.28455
H         52.85306       43.88062       61.31749
H         54.44805       43.21994       61.83078
H         53.82176       44.71686       62.60027
N         55.71130       44.60821       60.04047
C         56.48580       45.42465       59.11241
C         55.94349       45.50750       57.67731
O         56.61846       46.13889       56.89825
C         57.99749       45.04945       59.18527
C         58.31647       43.58270       59.10147
O         58.94963       42.98574       60.13295
O         58.01536       42.92915       58.11770
H         56.12315       43.72979       60.38951
H         56.48383       46.47691       59.47395
H         58.38217       45.40186       60.16880
H         58.57184       45.59835       58.40988
N         54.76061       45.00208       57.22007
C         54.34098       45.21079       55.81681
C         53.07776       46.04711       55.69881
O         52.14027       45.75926       56.42912
C         54.15178       43.87838       55.08054
C         55.49695       43.17080       54.86980
C         55.35551       42.02291       53.86211
C         56.69704       41.35469       53.52290
N         57.27050       40.64833       54.66817
H         54.14158       44.48338       57.85957
H         55.11187       45.73930       55.24159
H         53.74150       44.11357       54.07473
H         53.42062       43.22149       55.59889
H         55.88769       42.82449       55.84892
H         56.21679       43.89665       54.43466
H         54.95680       42.44823       52.91334
H         54.63374       41.26582       54.23475
H         57.41662       42.11452       53.14414
H         56.52069       40.62292       52.70426
H         56.59585       39.92844       55.01499
H         58.14812       40.16904       54.36361
H         57.51026       41.31341       55.43649
N         52.89531       47.04164       54.75767
C         53.83289       47.51551       53.72055
C         54.31150       46.41734       52.78104
O         55.48595       46.07892       52.81273
C         54.98070       48.38556       54.27911
C         54.47402       49.68456       54.82870
O         53.15924       49.98130       54.80609
O         55.26201       50.48169       55.31250
H         51.96584       47.49070       54.74613
H         53.30776       48.23440       53.05261
H         55.67500       48.65238       53.45372
H         55.55359       47.85652       55.06280
N         53.51345       45.88241       51.81225
C         52.13728       46.27758       51.55719
C         51.22627       45.08674       51.34949
O         51.67934       43.95707       51.46874
H         53.94754       45.22506       51.14530
H         52.13544       46.88308       50.63698
H         51.72232       46.89690       52.37260
N         49.90167       45.24109       51.04861
C         49.25812       46.54608       50.89547
C         49.73982       47.28718       49.65656
O         50.34878       46.68666       48.78109
C         47.71613       46.43118       50.86875
C         47.17204       45.71178       49.65739
O         47.46970       44.41878       49.42873
O         46.43206       46.29853       48.88403
H         49.33127       44.38613       50.98293
H         49.51229       47.14307       51.79804
H         47.28957       47.45858       50.89003
H         47.37069       45.90998       51.78674
N         49.49573       48.62163       49.53495
C         49.88622       49.41536       48.38320
C         51.37075       49.35179       48.12372
O         51.76288       49.01242       47.01556
H         49.01155       49.10899       50.30454
H         49.60790       50.47598       48.57078
H         49.32928       49.07061       47.48515
N         52.25955       49.68054       49.10124
C         53.70686       49.69265       48.88311
C         54.23084       48.29910       48.53192
O         53.50455       47.32283       48.63963
C         54.43311       50.26905       50.13550
C         54.02274       51.72036       50.40767
O         55.82264       50.25610       49.95467
H         51.88029       49.95382       50.02030
H         53.91474       50.35863       48.01593
H         54.16360       49.62746       51.00906
H         56.23398       50.23811       50.85851
H         54.55778       52.09356       51.30637
H         54.29943       52.36015       49.54260
H         52.93597       51.81919       50.58832
N         55.50209       48.15884       48.06118
C         56.11603       46.87883       47.70841
C         57.34936       46.59506       48.57425
O         57.92079       45.52117       48.43382
C         56.45368       46.85402       46.18180
C         57.48989       47.94999       45.79564
C         55.15348       46.97998       45.36246
C         57.88616       47.95180       44.31855
H         56.05824       49.01223       47.92696
H         55.40458       46.04710       47.90982
H         56.89487       45.86019       45.94290
H         58.41525       47.78828       46.38882
H         57.10185       48.96279       46.02422
H         55.34675       46.85729       44.27758
H         54.43998       46.17922       45.65166
H         54.66986       47.96598       45.52869
H         57.02270       48.21368       43.67301
H         58.66512       48.72644       44.15255
H         58.29299       46.96421       44.01894
N         57.82290       47.50773       49.47524
C         58.99974       47.33126       50.31635
C         58.63469       47.54320       51.78560
O         57.99942       48.53384       52.11991
C         60.13695       48.27708       49.86126
C         59.78247       49.76821       49.86600
O         60.52706       47.91404       48.55935
H         57.35128       48.41033       49.56766
H         59.41678       46.30559       50.19825
H         60.98592       48.12121       50.57151
H         61.51842       47.85591       48.54745
H         58.96290       49.98375       49.14899
H         59.48925       50.11042       50.87774
H         60.67152       50.35472       49.55239
N         59.02482       46.63303       52.71884
C         58.68451       46.68605       54.14723
C         59.16762       47.95446       54.87331
O         59.83565       48.78865       54.28058
C         59.25110       45.41518       54.85268
C         60.78904       45.37583       54.86931
O         58.76174       44.27022       54.20349
H         59.56891       45.82725       52.37570
H         57.57855       46.65849       54.23186
H         58.90214       45.40207       55.90655
H         58.81296       43.52129       54.85342
H         61.19906       46.25372       55.40986
H         61.13261       44.45997       55.39406
H         61.21115       45.36360       53.84373
N         58.88825       48.10622       56.20737
C         59.41000       49.13677       57.08876
C         58.31061       49.89352       57.87106
O         58.66065       50.82967       58.57563
C         60.31732       48.37964       58.09944
C         61.32152       49.22140       58.90136
C         62.42268       49.86424       58.03655
C         63.30104       48.82571       57.30710
N         64.35331       49.47858       56.53280
H         58.37592       47.37492       56.67733
H         59.99698       49.85257       56.47902
H         60.88969       47.59422       57.56799
H         59.66012       47.82386       58.80565
H         61.81458       48.55272       59.64129
H         60.78972       50.00439       59.47678
H         63.07554       50.45781       58.71192
H         61.97269       50.56232       57.30201
H         62.69601       48.21478       56.60583
H         63.76402       48.14382       58.05564
H         64.96184       50.05196       57.16005
H         64.93712       48.74583       56.06766
H         63.92535       50.08568       55.79638
N         56.98541       49.53113       57.85595
C         55.96415       50.17855       58.69733
C         56.29637       50.02999       60.16943
O         56.44307       48.91128       60.64249
C         54.55492       49.57223       58.45138
C         53.43510       50.08823       59.39559
C         53.25835       51.59263       59.46196
O         53.43014       52.16746       60.52461
O         52.86083       52.31224       58.39332
H         56.68593       48.75056       57.25646
H         55.90616       51.25703       58.43195
H         54.60093       48.46685       58.57369
H         54.26188       49.76581       57.41430
H         53.65796       49.72093       60.42063
H         52.47080       49.62606       59.09171
N         56.35080       51.13535       60.96468
C         56.54481       51.08385       62.39847
H         57.43754       51.68117       62.67274
H         55.65318       51.52088       62.89822
H         56.67535       50.04711       62.77240
H         56.20237       52.06567       60.54548
Ca        52.45734       51.27078       56.46906
O         52.68718       54.21518       55.46144
H         52.72593       54.90353       54.75077
H         52.88714       54.70633       56.29727
O         51.93900       52.38240       53.05004
H         52.91311       52.51726       53.16655
H         51.65732       53.11842       52.45039
O         49.58297       53.81393       55.08582
H         48.95386       53.74518       54.32434
H         49.87093       54.76138       55.08425

Ca 1.0



