%chk=apoCaM-CA-Ng.loop4.water6.frame530.chk
%nprocshared=20
%mem=10GB
%nosave
#b3lyp/svp scf=(tight,noincore,xqc) Test 
#IOP(5/87=12) Density=Current Pop=(MK,readradii) iop(6/33=2) iop(6/42=6)

apoCaM-CA-Ng.loop4.water6.frame530 

   -3  1 
C         78.98866        5.27495       65.85603
C         79.24891        4.07249       66.71090
O         78.76702        4.02849       67.83178
H         78.35438        6.01046       66.39668
H         79.94994        5.75929       65.58699
H         78.45946        4.96328       64.93107
N         79.99439        3.03548       66.22669
C         80.30137        1.81160       66.97017
C         79.05710        0.97913       67.29873
O         79.19759       -0.02898       67.97793
C         81.12527        2.10969       68.24625
C         82.37610        2.88728       67.95326
O         82.29336        4.14691       67.48652
O         83.47167        2.39604       68.17200
H         80.37726        3.11710       65.27207
H         80.94608        1.17071       66.32688
H         81.40807        1.13978       68.71311
H         80.54056        2.68109       68.98783
N         77.81707        1.31088       66.82774
C         76.59777        0.55567       67.12908
C         76.70659       -0.90427       66.69144
O         77.53698       -1.20036       65.84295
C         75.34500        1.22308       66.45882
C         75.51147        1.37045       64.91497
C         75.04081        2.56997       67.14021
C         74.22807        1.77785       64.19316
H         77.73250        2.13826       66.23330
H         76.48483        0.55922       68.23538
H         74.46434        0.57321       66.62727
H         75.81968        0.39575       64.48230
H         76.29170        2.11704       64.66077
H         75.87049        3.29396       67.00273
H         74.10902        3.01973       66.74450
H         74.88740        2.41211       68.22960
H         73.43931        1.01497       64.36135
H         73.86578        2.76976       64.52761
H         74.42951        1.84125       63.10212
N         75.93296       -1.90314       67.22403
C         74.98246       -1.74146       68.32921
C         75.63547       -1.90414       69.69289
O         75.13263       -1.33747       70.65372
C         73.75593       -2.67319       68.17615
C         74.03385       -4.16123       68.20908
O         75.16217       -4.60580       68.34528
O         73.00474       -5.02028       68.08706
H         76.10778       -2.85708       66.87458
H         74.56780       -0.71790       68.31520
H         73.25531       -2.44081       67.21238
H         73.04067       -2.45004       68.99783
N         76.75165       -2.66404       69.85868
C         77.41442       -2.84865       71.13616
C         76.56961       -3.61061       72.13309
O         76.13894       -4.71177       71.81815
H         77.17066       -3.13366       69.04297
H         77.74434       -1.86768       71.53930
H         78.32369       -3.46463       70.96408
N         76.38021       -3.12997       73.39860
C         75.76216       -3.94650       74.44449
C         74.27780       -4.14975       74.20306
O         73.71820       -5.10033       74.73209
C         75.92371       -3.37691       75.88070
C         77.30711       -2.89392       76.23436
O         77.74551       -1.86590       75.74301
O         78.03156       -3.53378       77.17047
H         76.78126       -2.21328       73.63103
H         76.29118       -4.92734       74.43028
H         75.64532       -4.19651       76.58324
H         75.22263       -2.53392       76.05904
N         73.55526       -3.20908       73.52954
C         72.11329       -3.25334       73.37528
C         71.43290       -2.10461       74.09558
O         70.22520       -1.98623       73.95098
H         74.03589       -2.38512       73.13874
H         71.68252       -4.19979       73.76675
H         71.88129       -3.19592       72.29008
N         72.12269       -1.22248       74.89049
C         71.50819       -0.10482       75.61017
C         70.94429        0.96113       74.67277
O         70.33496        1.90573       75.15550
C         70.46534       -0.60585       76.63535
C         71.09967       -1.59637       77.62836
C         70.11349       -2.05330       78.66948
N         69.00465       -2.74488       78.31791
O         70.32585       -1.80911       79.84783
H         73.13708       -1.33935       75.02173
H         72.29990        0.40961       76.20123
H         69.60297       -1.07506       76.12150
H         70.08001        0.26615       77.20916
H         71.95880       -1.09828       78.13085
H         71.48292       -2.49089       77.09207
H         68.81412       -2.97280       77.33149
H         68.33731       -3.06153       79.03670
N         71.19374        0.92579       73.33269
C         70.81175        1.98155       72.40369
C         71.94007        2.98841       72.25590
O         71.66221        4.17216       72.12221
C         70.39329        1.40752       71.00972
C         71.49200        0.58091       70.30320
C         69.11463        0.56790       71.11811
H         71.80862        0.18894       72.97267
H         69.93358        2.54428       72.79553
H         70.15850        2.27319       70.35026
H         72.41621        1.17472       70.15804
H         71.73980       -0.34668       70.85956
H         71.14504        0.27169       69.29454
H         69.27483       -0.32072       71.76370
H         68.29011        1.18043       71.54016
H         68.79916        0.22282       70.10911
N         73.23658        2.57626       72.19505
C         74.34444        3.46154       71.85148
C         74.59814        4.51545       72.94060
O         74.15174        4.33821       74.06681
C         75.57966        2.56584       71.57971
C         76.71780        3.14855       70.79032
N         77.78854        2.36921       70.52764
O         76.67953        4.28535       70.35039
H         73.42933        1.56982       72.30393
H         74.05278        3.95955       70.89992
H         75.24598        1.70418       70.95889
H         75.95066        2.16412       72.54834
H         77.83165        1.39775       70.86923
H         78.57222        2.73499       69.97811
N         75.25428        5.67514       72.64321
C         75.50767        6.76213       73.60036
C         75.93553        8.05266       72.88256
O         76.00013        8.05748       71.65941
C         76.54852        6.35273       74.67786
C         77.93804        6.11233       74.13006
C         78.23460        4.94167       73.41568
C         78.95953        7.05435       74.35148
C         79.52647        4.71488       72.93067
C         80.24799        6.83226       73.85638
C         80.53745        5.66128       73.14896
O         81.78800        5.45328       72.69130
H         75.52302        5.80933       71.66304
H         74.55273        7.00446       74.11656
H         76.21853        5.46113       75.25194
H         76.59610        7.17253       75.42413
H         77.47195        4.19542       73.25256
H         78.75877        7.96623       74.90010
H         79.74233        3.80146       72.39098
H         81.02293        7.56938       74.02775
H         82.03256        4.65558       72.20093
N         76.24393        9.19434       73.57442
C         76.63847       10.43377       72.90707
C         78.11114       10.71540       73.17563
O         78.45446       10.98244       74.31929
C         75.77402       11.62083       73.36448
C         74.29011       11.40974       73.04596
C         73.49097       12.61660       73.44372
O         72.86187       13.24009       72.60383
O         73.46388       13.01787       74.72925
H         76.22655        9.18798       74.60508
H         76.46805       10.34102       71.82149
H         76.12489       12.53455       72.83381
H         75.90090       11.77999       74.45873
H         73.90368       10.52475       73.59529
H         74.17165       11.22946       71.95460
N         79.07091       10.63209       72.20362
C         78.79718       10.18661       70.83957
C         78.09683       11.24459       70.00273
O         77.92370       12.36746       70.45744
C         80.06998        9.67258       70.15507
C         81.11649       10.72584       69.76252
C         82.26315        9.98318       69.14330
O         82.01813        9.15572       68.10671
O         83.37686       10.03551       69.63866
H         80.05179       10.77667       72.49056
H         78.15759        9.28208       70.90997
H         79.76043        9.14729       69.22705
H         80.53405        8.91628       70.82711
H         81.46118       11.29952       70.64944
H         80.69008       11.43495       69.02031
N         77.66518       10.93897       68.74759
C         77.01354       11.90696       67.89411
H         76.08579       12.27898       68.37738
H         77.69953       12.75735       67.69451
H         76.74591       11.43358       66.92499
H         77.80047        9.98536       68.38057
Ca        83.35351        7.40752       67.60920
O         84.16420        8.79217       65.18714
H         83.41056        9.32165       65.55126
H         83.73009        8.07552       64.65948
O         86.02190        8.45054       68.22512
H         85.37021        9.17503       68.04944
H         86.07961        8.40340       69.21225
O         80.22184        6.55740       68.97513
H         80.39450        5.62497       69.25773
H         79.24579        6.67761       69.09340
O         85.34714        5.36263       69.03922
H         86.19115        5.01026       68.66091
H         84.64656        4.76880       68.67227
O         83.16070        7.15472       70.72475
H         82.65480        7.70222       71.37623
H         84.06283        7.56172       70.70867
O         84.18816        5.34720       65.56601
H         83.29982        5.05329       65.24170
H         84.76380        4.54706       65.47683

Ca 1.0



