%chk=apoCaM-CA-Ng.loop3.water3.frame720.chk
%nprocshared=20
%mem=10GB
%nosave
#b3lyp/svp scf=(tight,noincore,xqc) Test 
#IOP(5/87=12) Density=Current Pop=(MK,readradii) iop(6/33=2) iop(6/42=6)

apoCaM-CA-Ng.loop3.water3.frame720 

   0  1 
C         79.53126       98.19804      -24.48952
C         79.97560       97.89706      -25.88654
O         79.97081       98.78873      -26.72446
H         78.66907       97.55414      -24.22329
H         80.37095       97.99618      -23.78983
H         79.23935       99.26515      -24.39125
N         80.42671       96.65229      -26.19836
C         80.98726       96.34304      -27.50022
C         79.93029       96.34826      -28.60822
O         78.93548       95.64282      -28.50783
C         81.76592       95.00964      -27.47614
C         82.54491       94.82514      -28.75338
O         83.27809       93.73514      -28.99042
O         82.47654       95.64873      -29.64920
H         80.45684       95.93670      -25.45524
H         81.75729       97.11129      -27.69752
H         81.07027       94.15670      -27.32411
H         82.48917       95.01899      -26.64044
N         80.14655       97.08801      -29.73396
C         79.26651       97.16087      -30.89456
C         78.97902       95.78749      -31.49833
O         77.81086       95.44630      -31.60406
C         79.91016       98.09926      -31.95047
C         78.99642       98.42985      -33.14019
C         79.68180       99.43422      -34.08342
C         78.74902       99.85839      -35.22628
N         79.39156      100.85031      -36.08991
H         81.01401       97.63911      -29.77342
H         78.30656       97.62238      -30.56838
H         80.86154       97.65533      -32.32021
H         80.15537       99.06098      -31.44696
H         78.06067       98.88568      -32.74968
H         78.74070       97.50494      -33.70122
H         80.60680       98.98162      -34.50510
H         79.96444      100.34218      -33.50613
H         77.82222      100.30106      -34.79790
H         78.46793       98.96800      -35.83071
H         79.64034      101.70301      -35.53690
H         80.25370      100.44875      -36.52471
H         78.72648      101.12651      -36.84822
N         79.98395       94.96496      -31.93948
C         79.72902       93.70109      -32.64298
C         80.19557       92.45387      -31.90642
O         79.99473       91.36166      -32.42574
C         80.30797       93.78617      -34.07028
C         81.80301       93.93843      -34.31949
O         82.14552       94.07822      -35.48135
O         82.79310       93.92182      -33.39665
H         80.95987       95.26566      -31.81753
H         78.63247       93.56020      -32.76882
H         79.81976       94.66452      -34.54717
H         79.97782       92.88498      -34.63249
N         80.78485       92.51993      -30.68778
C         81.26495       91.37614      -29.92523
C         82.46461       90.62818      -30.50566
O         83.00501       89.81370      -29.76994
H         80.87127       93.44064      -30.23865
H         80.43465       90.66548      -29.72958
H         81.59826       91.76541      -28.93908
N         82.94524       90.80317      -31.77584
C         84.10498       90.06247      -32.27097
C         85.40497       90.70722      -31.81765
O         85.41640       91.87391      -31.45691
C         84.12174       89.99436      -33.81537
C         82.93706       89.24210      -34.37249
N         83.11640       88.09235      -35.06466
O         81.80658       89.67401      -34.20596
H         82.46592       91.43345      -32.42786
H         84.05312       89.01582      -31.89458
H         85.05277       89.47720      -34.13576
H         84.14398       91.01884      -34.24879
H         84.05948       87.70605      -35.21763
H         82.30737       87.57983      -35.44525
N         86.56196       89.99055      -31.85646
C         87.88400       90.55272      -31.63215
C         88.01227       91.38711      -30.37000
O         87.73698       90.90517      -29.28128
H         86.51456       88.99223      -32.11296
H         88.14335       91.17789      -32.51363
H         88.62290       89.72258      -31.60312
N         88.49417       92.65964      -30.47377
C         88.78695       93.54929      -29.35043
C         87.55267       94.30756      -28.87713
O         86.46124       94.07581      -29.37516
C         89.87738       94.56394      -29.80126
C         91.19511       93.89107      -30.08584
C         91.88449       93.23389      -29.05141
C         91.76218       93.93633      -31.36854
C         93.11805       92.62903      -29.29720
C         92.99830       93.32946      -31.61269
C         93.68026       92.67530      -30.58014
O         94.87345       92.10006      -30.82971
H         88.77422       92.98066      -31.41392
H         89.18785       92.96903      -28.49169
H         90.10045       95.31943      -29.02455
H         89.50694       95.11955      -30.69076
H         91.47227       93.19682      -28.05055
H         91.25126       94.44333      -32.17753
H         93.63668       92.12994      -28.48818
H         93.42838       93.37184      -32.60497
H         95.37706       91.64360      -30.14047
N         87.70052       95.27259      -27.91653
C         86.68179       96.17794      -27.39216
C         86.06185       97.03065      -28.50410
O         85.48989       96.48284      -29.43400
C         85.60643       95.45603      -26.52842
C         84.76790       96.47537      -25.69228
C         86.21911       94.38941      -25.60107
C         85.53744       97.22633      -24.58848
H         88.63784       95.41054      -27.51419
H         87.22426       96.84950      -26.69805
H         84.92079       94.91463      -27.21080
H         83.94710       95.93181      -25.18040
H         84.30456       97.22195      -26.37174
H         85.42142       93.90882      -24.99428
H         86.70663       93.59004      -26.19665
H         86.98127       94.82420      -24.92271
H         85.94568       96.52171      -23.83427
H         86.36325       97.84605      -24.98846
H         84.84478       97.91019      -24.05504
N         86.09670       98.39300      -28.43784
C         85.47526       99.28561      -29.41905
C         86.34764      100.51445      -29.58627
O         85.95489      101.59815      -29.17036
C         84.05503       99.69408      -28.95571
O         83.12205       98.66165      -29.09048
H         86.51251       98.82621      -27.59908
H         85.36399       98.80453      -30.41718
H         83.69264      100.50548      -29.62325
H         84.06221      100.07523      -27.91193
H         83.55236       97.81268      -28.83820
N         87.55063      100.42532      -30.21665
C         88.43232      101.58209      -30.34864
C         89.58446      101.31847      -31.30893
O         90.03857      100.18516      -31.38129
C         89.00112      101.94220      -28.97617
H         87.81939       99.51688      -30.62431
H         87.83030      102.42345      -30.74970
H         89.57300      101.08703      -28.55788
H         89.68400      102.79465      -29.08034
H         88.20074      102.22058      -28.26051
N         90.13448      102.29187      -32.10042
C         89.73678      103.69933      -32.12803
C         90.93857      104.58162      -32.45492
O         91.52688      104.36742      -33.50651
C         88.68143      103.90259      -33.22399
H         90.86734      101.99385      -32.76387
H         89.28579      104.00339      -31.16599
H         87.78072      103.28786      -33.01970
H         88.37405      104.97029      -33.26665
H         89.08288      103.61024      -34.21921
N         91.36709      105.62626      -31.68299
C         90.81614      106.03368      -30.39264
C         91.19620      105.05843      -29.30056
O         90.42819      104.91146      -28.36036
C         91.35303      107.42021      -29.97503
C         90.88171      108.53277      -30.92241
C         91.41273      109.86563      -30.47998
O         92.12663      110.51945      -31.22332
O         91.09782      110.35067      -29.26326
H         92.14938      106.18418      -32.06112
H         89.70933      106.13459      -30.45566
H         92.46532      107.39675      -29.93547
H         90.97355      107.65949      -28.95528
H         89.77080      108.57519      -30.92363
H         91.22486      108.32480      -31.95804
N         92.40780      104.43074      -29.31185
C         92.85133      103.52423      -28.27221
H         93.78447      103.91792      -27.81700
H         92.09596      103.39512      -27.46914
H         93.06237      102.52985      -28.71827
H         93.05983      104.60063      -30.09177
Ca        83.24666       93.57145      -31.22313
O         83.89003       96.76023      -32.23487
H         83.98862       96.73454      -33.21978
H         83.57428       97.67818      -32.03990
O         85.79982       93.96897      -33.78865
H         85.05832       93.40879      -34.12454
H         85.98839       94.59571      -34.53108
O         86.98467       95.85112      -31.83988
H         87.60680       95.59600      -32.56584
H         87.42440       96.61798      -31.39440

Ca 1.0



