%chk=apoCaM-CA-Ng.loop4.water5.frame937.chk
%nprocshared=20
%mem=10GB
%nosave
#b3lyp/svp scf=(tight,noincore,xqc) Test 
#IOP(5/87=12) Density=Current Pop=(MK,readradii) iop(6/33=2) iop(6/42=6)

apoCaM-CA-Ng.loop4.water5.frame937 

   -3  1 
C        -25.08473        7.08465       79.81167
C        -26.33233        7.66445       80.40024
O        -27.39590        7.38965       79.87892
H        -24.18535        7.36659       80.39517
H        -25.16617        5.98031       79.75484
H        -24.97044        7.48798       78.78229
N        -26.29100        8.50275       81.47258
C        -27.45400        9.24740       81.95620
C        -28.62713        8.30718       82.31550
O        -29.77707        8.66047       82.09077
C        -27.88826       10.28389       80.87454
C        -26.77292       11.12367       80.27233
O        -25.75965       10.52305       79.59235
O        -26.84475       12.34168       80.31516
H        -25.38473        8.67793       81.93346
H        -27.14041        9.81078       82.86349
H        -28.66600       10.94812       81.31239
H        -28.35040        9.74759       80.02036
N        -28.38340        7.03420       82.74265
C        -29.40566        5.98468       82.86283
C        -30.35022        6.26618       84.02401
O        -29.84492        6.38010       85.13255
C        -28.71417        4.59373       83.11708
C        -27.65962        4.20295       82.04257
C        -29.72598        3.44021       83.26811
C        -28.18367        4.16284       80.60423
H        -27.40135        6.78090       82.90843
H        -29.95700        5.90783       81.90662
H        -28.17329        4.65772       84.08747
H        -27.24835        3.20318       82.30070
H        -26.80242        4.90317       82.06479
H        -30.24484        3.24033       82.31663
H        -29.20120        2.50403       83.54763
H        -30.47173        3.64614       84.06492
H        -27.36025        3.85257       79.92803
H        -29.01737        3.44499       80.48069
H        -28.52448        5.16606       80.28753
N        -31.71664        6.30450       83.93762
C        -32.56323        6.17436       82.75031
C        -33.80954        7.03871       82.93007
O        -34.41922        7.00249       83.99078
C        -32.98148        4.70738       82.55489
C        -34.02642        4.55501       81.50775
O        -35.21889        4.03498       81.85664
O        -33.81208        4.91795       80.35995
H        -32.21285        6.34223       84.84295
H        -32.03964        6.49522       81.82557
H        -33.37429        4.28277       83.50107
H        -32.12746        4.11209       82.21667
N        -34.28498        7.78357       81.89288
C        -35.44645        8.65369       81.99147
C        -36.60444        8.23351       81.10162
O        -37.51710        9.03508       80.95911
H        -33.80173        7.73988       80.98255
H        -35.11109        9.66523       81.67679
H        -35.82347        8.74205       83.03304
N        -36.67745        7.00305       80.50392
C        -37.77194        6.63841       79.59178
C        -37.97540        5.12777       79.34277
O        -39.08737        4.75625       78.99226
C        -37.62178        7.42574       78.26911
C        -36.26774        7.22963       77.62397
O        -35.91861        6.14252       77.20596
O        -35.42151        8.26963       77.51054
H        -35.94576        6.32973       80.72974
H        -38.72111        6.94190       80.09062
H        -37.71492        8.50759       78.49540
H        -38.43519        7.16535       77.55861
N        -36.99523        4.19931       79.52736
C        -37.17282        2.75517       79.39619
C        -37.16927        2.26630       77.95888
O        -37.23602        1.06472       77.74440
H        -36.06375        4.51608       79.76491
H        -38.07430        2.42570       79.95610
H        -36.29686        2.26351       79.87697
N        -37.01328        3.14134       76.93026
C        -36.88142        2.81351       75.52073
C        -35.68850        1.92703       75.20336
O        -35.66568        1.31703       74.14332
C        -38.20690        2.36497       74.88795
C        -39.29037        3.43911       75.13165
C        -40.39719        3.43107       74.10959
N        -41.60324        3.96112       74.41024
O        -40.17703        3.05302       72.96792
H        -36.95414        4.13264       77.14475
H        -36.64365        3.76629       74.99515
H        -38.55213        1.37152       75.25085
H        -38.00207        2.28586       73.79925
H        -38.84705        4.45486       75.05189
H        -39.68357        3.34853       76.16949
H        -41.80071        4.32169       75.35472
H        -42.33745        4.02178       73.68943
N        -34.60788        1.90050       76.03169
C        -33.37553        1.17372       75.74017
C        -32.16458        2.09553       75.68808
O        -31.08895        1.60287       75.37409
C        -33.14181        0.05794       76.79436
C        -33.21821        0.58563       78.24114
C        -34.13976       -1.08710       76.60069
H        -34.64929        2.43923       76.90759
H        -33.42604        0.70123       74.73394
H        -32.12866       -0.37072       76.62575
H        -32.52848        1.44297       78.39067
H        -34.25061        0.91400       78.49059
H        -32.94680       -0.21621       78.95760
H        -35.18086       -0.74241       76.77057
H        -34.05848       -1.48742       75.56686
H        -33.90838       -1.91257       77.30643
N        -32.23955        3.42158       75.99608
C        -31.08009        4.29781       76.02102
C        -31.28041        5.45449       75.05591
O        -32.38666        5.69086       74.58919
C        -30.88860        4.74102       77.49683
C        -29.80519        5.75320       77.76442
N        -30.10605        6.91008       78.40305
O        -28.65091        5.52062       77.43704
H        -33.13732        3.84339       76.26936
H        -30.16627        3.75655       75.69099
H        -30.66129        3.83303       78.09692
H        -31.85104        5.15386       77.87051
H        -31.06284        7.10361       78.73189
H        -29.38506        7.61571       78.59128
N        -30.21442        6.23029       74.73180
C        -30.28720        7.45727       73.95810
C        -29.16815        7.50725       72.93182
O        -28.03620        7.19477       73.28039
C        -30.03056        8.59058       74.95569
C        -30.08052        9.97051       74.35217
C        -31.30223       10.54158       73.96734
C        -28.89924       10.70925       74.19903
C        -31.33823       11.84163       73.45059
C        -28.93198       11.99729       73.66240
C        -30.15044       12.57295       73.29504
O        -30.16807       13.82861       72.80511
H        -29.29954        5.98800       75.13659
H        -31.28923        7.61381       73.49940
H        -29.02888        8.39367       75.36992
H        -30.74782        8.54545       75.80220
H        -32.22575        9.99054       74.09152
H        -27.95283       10.28175       74.49346
H        -32.28871       12.28155       73.17835
H        -28.01082       12.55178       73.54306
H        -30.99185       14.27609       72.56580
N        -29.37908        8.04964       71.70222
C        -28.28321        8.38169       70.80014
C        -28.28683        9.88526       70.57269
O        -29.24368       10.34818       69.96462
C        -28.45491        7.63188       69.45774
C        -27.40028        8.04557       68.41363
C        -27.59695        7.31625       67.11795
O        -27.85958        7.93526       66.09855
O        -27.46628        5.97747       67.06883
H        -30.33619        8.32941       71.43547
H        -27.31957        8.06719       71.22946
H        -29.46352        7.85026       69.04012
H        -28.39018        6.53786       69.64726
H        -26.37973        7.83506       68.79229
H        -27.48489        9.13696       68.21588
N        -27.29770       10.75117       70.96353
C        -26.14264       10.51376       71.84533
C        -25.22823        9.38561       71.41491
O        -24.82328        9.32173       70.26287
C        -25.31388       11.81870       71.95285
C        -24.08239       11.79181       72.89247
C        -24.36579       11.79246       74.38895
O        -24.90844       10.73063       75.02225
O        -24.02130       12.75553       75.05439
H        -27.43024       11.72539       70.64529
H        -26.51806       10.28525       72.85361
H        -25.96631       12.66345       72.26130
H        -24.94554       12.04737       70.92610
H        -23.52596       12.72892       72.67056
H        -23.40562       10.95243       72.62625
N        -24.79539        8.50492       72.36438
C        -23.86863        7.42235       72.12340
H        -22.93677        7.61052       72.70005
H        -24.31862        6.47512       72.48724
H        -23.61188        7.31433       71.05052
H        -25.10308        8.63278       73.33956
Ca       -25.30466       10.60155       77.31318
O        -24.09674       12.99646       78.63323
H        -24.12856       13.97028       78.46391
H        -24.54806       12.88895       79.50588
O        -27.03314        8.57086       76.95747
H        -27.29684        8.54660       77.90234
H        -27.58253        9.31422       76.61459
O        -27.14223       12.57413       76.76574
H        -26.78714       13.10803       77.52023
H        -26.76550       13.00373       75.95775
O        -22.06837       10.86162       76.88412
H        -21.55308       11.70702       76.89917
H        -21.39023       10.15399       77.02455
O        -24.16639        8.03381       76.25824
H        -24.53545        7.48877       75.51915
H        -23.24154        8.24680       75.97782

Ca 1.0



