%chk=apoCaM-CA-Ng.loop1.water3.frame21.chk
%nprocshared=20
%mem=10GB
%nosave
#b3lyp/svp scf=(tight,noincore,xqc) Test 
#IOP(5/87=12) Density=Current Pop=(MK,readradii) iop(6/33=2) iop(6/42=6)

apoCaM-CA-Ng.loop1.water3.frame21 

   0  1 
C         61.12691       41.05910       55.19395
C         59.90554       41.93244       55.14210
O         59.96711       42.99489       54.54106
H         61.96207       41.62007       55.66402
H         60.94621       40.13988       55.79089
H         61.42134       40.76129       54.16629
N         58.75473       41.54428       55.75901
C         57.53295       42.34656       55.78674
C         57.13630       42.73149       57.21658
O         56.12319       43.39401       57.38813
C         56.41330       41.56513       55.06328
C         56.06855       40.25759       55.72827
O         55.54213       40.24564       56.96696
O         56.24186       39.20289       55.13796
H         58.74176       40.62809       56.23508
H         57.68036       43.29631       55.22852
H         56.75571       41.36438       54.02320
H         55.49220       42.18220       55.00167
N         57.87599       42.32653       58.28888
C         57.52581       42.57037       59.68548
C         57.78431       44.02279       60.05656
O         58.85247       44.50422       59.70421
C         58.39554       41.66823       60.60255
C         58.32831       40.15783       60.27398
C         56.90727       39.57061       60.31517
C         56.88004       38.05397       60.04640
N         57.31418       37.70743       58.68929
H         58.72556       41.77959       58.11447
H         56.47794       42.27528       59.86341
H         58.08319       41.81413       61.65634
H         59.46188       41.97591       60.52510
H         58.96246       39.62215       61.01253
H         58.77153       39.97906       59.27728
H         56.25487       40.06663       59.56728
H         56.48298       39.75278       61.32572
H         55.83373       37.70089       60.18086
H         57.51752       37.52874       60.79053
H         57.22391       36.67422       58.55844
H         56.70874       38.18224       57.98309
H         58.31361       37.96338       58.53091
N         56.95958       44.79630       60.82760
C         55.68749       44.42749       61.44385
C         55.77759       43.18772       62.32568
O         55.06949       42.22782       62.05778
C         54.54144       44.36913       60.40488
C         54.25900       45.70605       59.77397
O         54.96449       46.67275       60.00344
O         53.16854       45.86905       59.00797
H         57.29639       45.74764       61.04853
H         55.38731       45.24160       62.13947
H         53.61738       44.09995       60.95027
H         54.71287       43.60894       59.62029
N         56.57017       43.10891       63.43541
C         57.51889       44.11446       63.88697
C         57.16869       44.63317       65.26962
O         56.87569       43.81904       66.13203
H         56.51740       42.24417       63.99743
H         57.61560       44.93802       63.17301
H         58.51051       43.61779       63.94771
N         57.23249       45.95895       65.61269
C         57.73297       47.01699       64.73684
C         56.64582       47.60306       63.84604
O         56.97388       48.42855       63.00693
C         58.34960       48.16494       65.56268
C         59.42902       47.68136       66.49017
O         60.42198       47.12528       66.04865
O         59.30391       47.86697       67.81807
H         57.03866       46.19836       66.59879
H         58.56397       46.61414       64.11665
H         57.55249       48.66062       66.15823
H         58.79273       48.92021       64.87596
N         55.33296       47.24544       63.97103
C         54.30350       47.84499       63.12998
C         52.95968       47.14767       63.23799
O         52.79829       46.23879       64.03733
H         55.06927       46.53746       64.66666
H         54.62386       47.77503       62.07895
H         54.19515       48.92389       63.38070
N         51.94550       47.52172       62.40281
C         50.61285       46.91877       62.42911
C         50.35561       46.13302       61.15270
O         50.43004       46.68736       60.06630
C         49.52169       47.98447       62.69866
C         49.48259       49.14149       61.69133
O         49.70997       48.52641       63.98006
H         52.13964       48.25507       61.70554
H         50.53954       46.19580       63.26923
H         48.52579       47.48232       62.65110
H         49.30487       47.88847       64.62485
H         50.42306       49.73002       61.71773
H         49.30467       48.78122       60.66040
H         48.65001       49.82727       61.95427
N         50.07514       44.79797       61.22698
C         49.89883       43.96089       60.05135
C         48.51939       44.20308       59.45518
O         47.53426       43.86725       60.09921
C         50.04452       42.42671       60.38137
C         51.43201       41.98711       60.93253
C         49.78488       41.58213       59.11214
C         51.76253       42.44080       62.35513
H         50.00931       44.36084       62.15428
H         50.69966       44.20289       59.31589
H         49.27199       42.13522       61.12748
H         52.24217       42.28176       60.23124
H         51.43144       40.87589       60.99045
H         49.84698       40.49707       59.34256
H         48.76636       41.75307       58.71063
H         50.53084       41.81851       58.32329
H         52.68847       41.93592       62.69153
H         51.95230       43.52677       62.42457
H         50.94855       42.14422       63.04998
N         48.38525       44.68445       58.18726
C         47.13196       44.61416       57.43650
C         47.29756       43.70060       56.21432
O         46.34488       43.56178       55.46136
C         46.59296       46.01748       57.07359
C         47.49402       46.79702       56.11942
O         46.40377       46.77147       58.24389
H         49.22723       45.01770       57.69388
H         46.33402       44.14671       58.05662
H         45.61104       45.89900       56.55421
H         45.57744       46.42995       58.67825
H         47.01804       47.77375       55.88564
H         48.48464       46.98506       56.57794
H         47.62554       46.23988       55.16835
N         48.45186       42.98479       56.00816
C         48.67259       41.98081       54.97053
C         48.84902       42.57152       53.58006
O         48.04530       43.38693       53.15083
C         47.59908       40.86287       54.96291
C         47.40150       40.25105       56.35669
O         48.01391       39.85771       54.07131
H         49.22484       43.07010       56.67851
H         49.62865       41.46732       55.22534
H         46.63029       41.28197       54.61254
H         47.24287       39.24835       53.93444
H         48.35525       39.83013       56.73914
H         47.02593       41.01284       57.07071
H         46.64622       39.43838       56.30580
N         49.83881       42.07878       52.77483
C         49.95218       42.38567       51.34943
C         50.71691       43.67303       51.07605
O         50.70061       44.14111       49.94631
C         50.67295       41.20059       50.65913
C         50.72608       41.23361       49.12042
C         49.34978       41.29634       48.43441
C         48.41763       40.14616       48.85245
N         47.16294       40.19180       48.10578
H         50.42254       41.31640       53.15426
H         48.91944       42.46108       50.94619
H         50.17042       40.25808       50.96235
H         51.71496       41.13869       51.04598
H         51.24863       40.31148       48.78560
H         51.33942       42.09045       48.77307
H         49.52077       41.24832       47.33726
H         48.85789       42.26736       48.65514
H         48.18339       40.22337       49.93641
H         48.91963       39.17090       48.66777
H         46.54185       39.41890       48.43789
H         46.68131       41.10632       48.26608
H         47.35072       40.06226       47.08538
N         51.45856       44.27340       52.04420
C         52.30060       45.44052       51.79678
C         53.42559       45.08565       50.84086
O         54.17436       44.15656       51.11439
C         52.89234       45.94480       53.12382
C         51.77649       46.48738       54.02941
C         52.30266       46.85448       55.37694
O         51.81018       46.23596       56.46602
O         53.16787       47.70721       55.49694
H         51.46081       43.86158       52.98847
H         51.68966       46.26618       51.36816
H         53.61850       46.76541       52.92837
H         53.43455       45.11048       53.62495
H         50.98491       45.72261       54.17333
H         51.31173       47.37823       53.55377
N         53.61619       45.80779       49.70208
C         54.68832       45.51862       48.77352
H         55.67006       45.58805       49.28951
H         54.56196       44.49969       48.35078
H         54.67673       46.25424       47.94074
H         52.99388       46.60273       49.49259
Ca        52.62477       48.00569       58.50290
O         55.51758       48.65791       58.04539
H         56.37430       48.37656       58.45410
H         55.77729       49.27491       57.31715
O         53.18155       50.62760       57.15070
H         52.66608       51.26908       57.70112
H         52.86225       50.77748       56.22575
O         49.97853       49.09333       57.53991
H         49.23961       49.06583       58.19799
H         50.19328       50.05513       57.44667

Ca 1.0



