%chk=apoCaM-CA-Ng.loop1.water1.frame819.chk
%nprocshared=20
%mem=10GB
%nosave
#b3lyp/svp scf=(tight,noincore,xqc) Test 
#IOP(5/87=12) Density=Current Pop=(MK,readradii) iop(6/33=2) iop(6/42=6)

apoCaM-CA-Ng.loop1.water1.frame819 

   0  1 
C         48.81212       82.77672       47.95836
C         49.67882       81.59983       47.63485
O         49.14786       80.53903       47.33614
H         47.73775       82.50459       47.87510
H         49.01496       83.11003       48.99770
H         49.03001       83.60545       47.25418
N         51.03676       81.71571       47.69157
C         51.93980       80.60358       47.42502
C         52.63866       80.13299       48.68721
O         52.73771       80.87667       49.65058
C         52.85159       80.87527       46.21418
C         53.76772       82.08388       46.16460
O         53.94987       82.99618       47.14814
O         54.39082       82.25310       45.12839
H         51.43397       82.62597       47.95449
H         51.33293       79.72390       47.11707
H         52.16982       80.98367       45.34151
H         53.47361       79.97048       46.03733
N         52.94679       78.81080       48.81853
C         53.33752       78.22192       50.09618
C         54.73536       78.63957       50.52674
O         55.03998       78.52378       51.70547
C         53.13432       76.69231       50.02275
C         53.27591       75.94212       51.35475
C         52.75312       74.50438       51.19180
C         52.83043       73.70284       52.49578
N         52.20489       72.38954       52.33262
H         52.76137       78.18527       48.01829
H         52.61442       78.59906       50.85549
H         53.81116       76.24476       49.26188
H         52.08535       76.54583       49.67825
H         52.65973       76.44819       52.12958
H         54.33578       75.94104       51.67981
H         53.32759       73.97510       50.40004
H         51.68612       74.55611       50.88005
H         52.30296       74.25319       53.30607
H         53.89371       73.57377       52.78870
H         52.67885       71.85160       51.57124
H         52.28409       71.85588       53.22804
H         51.19066       72.50422       52.10109
N         55.64330       79.12879       49.63252
C         56.97922       79.57035       50.02720
C         56.91401       80.83597       50.87960
O         56.01266       81.63407       50.66441
C         57.87732       79.79969       48.78325
C         57.40752       80.84961       47.80215
O         58.07018       81.06864       46.80119
O         56.27164       81.54349       47.99644
H         55.39032       79.15273       48.63383
H         57.45486       78.74687       50.59624
H         57.95541       78.83729       48.23219
H         58.89707       80.08007       49.12123
N         57.85235       81.16283       51.81675
C         58.94657       80.31543       52.25905
C         58.41782       79.18792       53.10828
O         57.71335       79.46811       54.06840
H         57.77547       82.08782       52.26886
H         59.60822       80.91642       52.92018
H         59.56023       79.97137       51.40021
N         58.72194       77.88966       52.82742
C         58.18555       76.76365       53.58806
C         59.31384       75.98478       54.26156
O         60.47587       76.30994       54.05650
C         57.36738       75.89898       52.60260
C         56.55432       74.82429       53.26076
O         56.72888       73.65264       52.96697
O         55.61557       75.15225       54.16993
H         59.34026       77.68616       52.02624
H         57.50668       77.13162       54.38822
H         58.05113       75.46027       51.84236
H         56.65035       76.55495       52.06965
N         59.04157       74.93123       55.08577
C         60.07250       74.10167       55.68833
C         60.85277       74.76222       56.80842
O         61.73920       74.10537       57.33581
H         58.06515       74.66024       55.26004
H         60.75763       73.74098       54.89234
H         59.58502       73.20946       56.14084
N         60.54610       76.00367       57.28497
C         61.18983       76.59273       58.45992
C         61.74945       77.97935       58.16337
O         61.56142       78.48847       57.06651
C         60.16448       76.63559       59.63298
C         58.85043       77.36663       59.29536
O         59.88113       75.33413       60.08450
H         59.77257       76.52827       56.85416
H         62.05042       75.97267       58.79499
H         60.63050       77.16754       60.48796
H         59.40931       74.85140       59.35702
H         58.27547       76.82062       58.51897
H         58.21355       77.42700       60.20269
H         59.03928       78.39100       58.92138
N         62.43565       78.65738       59.13529
C         62.89090       80.03968       59.00171
C         64.39850       80.14128       59.19154
O         65.05219       80.69961       58.32155
C         62.14833       80.95588       60.02488
C         60.61461       80.77891       59.88258
C         62.55457       82.43071       59.81061
C         59.78127       81.59830       60.86720
H         62.58878       78.19260       60.04241
H         62.64083       80.42964       57.98865
H         62.43455       80.65541       61.05748
H         60.37341       79.72046       60.09170
H         60.29352       81.02285       58.84594
H         62.26180       82.77046       58.79342
H         62.07965       83.09370       60.56033
H         63.64954       82.56516       59.92772
H         59.89105       82.68583       60.68578
H         58.70810       81.34459       60.73155
H         60.07271       81.35865       61.91135
N         65.01751       79.64613       60.30778
C         66.44440       79.83884       60.58077
C         66.64157       80.39189       61.98848
O         65.70563       80.39441       62.77676
C         67.21706       78.50914       60.40415
C         67.07295       77.97317       58.97544
O         68.58208       78.71035       60.66966
H         64.46057       79.11281       60.99161
H         66.86495       80.58291       59.86844
H         66.79879       77.76582       61.12312
H         68.97308       77.82211       60.87873
H         67.64112       77.02531       58.86946
H         66.00956       77.76703       58.73468
H         67.47470       78.71061       58.24706
N         67.84591       80.91964       62.35389
C         68.11338       81.47540       63.67456
C         68.04672       82.98269       63.58255
O         67.21716       83.57178       64.26273
C         69.46600       80.94412       64.22616
C         69.76837       81.49391       65.62719
O         70.51965       81.27530       63.35768
H         68.58358       80.99905       61.63835
H         67.32268       81.15838       64.39242
H         69.38116       79.83441       64.28897
H         71.29372       80.70437       63.60383
H         69.87167       82.60001       65.60379
H         68.95901       81.21799       66.33483
H         70.72288       81.06615       66.00228
N         68.87062       83.67149       62.74562
C         68.81422       85.11863       62.58193
C         68.52914       85.45950       61.12837
O         68.58613       84.56974       60.28865
C         70.10288       85.74158       63.15839
C         71.39458       85.34422       62.41820
C         72.63066       85.71079       63.25117
C         73.92797       85.41319       62.48768
N         75.09820       85.64718       63.33412
H         69.55502       83.14668       62.18527
H         67.96848       85.52572       63.17806
H         70.16813       85.38826       64.21257
H         70.02688       86.85025       63.17964
H         71.41076       85.85077       61.42906
H         71.44334       84.24875       62.25445
H         72.61101       85.10554       64.18610
H         72.60946       86.78743       63.52466
H         73.97735       86.07186       61.59231
H         73.93798       84.35404       62.14605
H         75.96551       85.50269       62.76834
H         75.09245       86.62482       63.70511
H         75.10076       84.96860       64.13071
N         68.13974       86.71475       60.76110
C         67.76686       87.04120       59.38477
C         66.66051       86.10576       58.87587
O         66.93424       85.39572       57.91831
C         67.42087       88.54283       59.23844
C         66.94272       88.89473       57.81659
C         66.64987       90.35979       57.63847
O         66.24298       90.76216       56.56038
O         66.82402       91.23645       58.64726
H         68.07589       87.44442       61.48818
H         68.66053       86.87087       58.74081
H         68.33408       89.13073       59.47848
H         66.64784       88.84846       59.96550
H         66.00633       88.33703       57.59669
H         67.71790       88.59497       57.07941
N         65.41534       85.98679       59.42403
C         64.91807       86.74391       60.54967
H         63.89419       86.39597       60.80426
H         65.56586       86.59930       61.43738
H         64.82618       87.81314       60.28757
H         64.77200       85.29273       59.01108
Ca        53.35677       83.44474       49.29016
O         55.09617       85.82547       47.78894
H         54.13830       86.06169       47.70303
H         55.47340       85.98763       46.88793

Ca 1.0



