%chk=apoCaM-CA-Ng.loop1.water3.frame54.chk
%nprocshared=20
%mem=10GB
%nosave
#b3lyp/svp scf=(tight,noincore,xqc) Test 
#IOP(5/87=12) Density=Current Pop=(MK,readradii) iop(6/33=2) iop(6/42=6)

apoCaM-CA-Ng.loop1.water3.frame54 

   0  1 
C         68.52608       76.31471       72.78844
C         67.75140       77.58602       72.97740
O         67.00180       77.97258       72.09273
H         69.61401       76.53126       72.85435
H         68.25409       75.58933       73.58352
H         68.31323       75.86197       71.79717
N         67.91470       78.30302       74.12134
C         67.25425       79.57626       74.39165
C         68.26880       80.71935       74.43322
O         67.89414       81.82471       74.80103
C         66.38205       79.47834       75.66774
C         67.12656       79.16147       76.93760
O         67.11118       80.03848       77.95907
O         67.69549       78.09090       77.07660
H         68.58248       77.94437       74.81979
H         66.54578       79.83512       73.57423
H         65.60349       78.69878       75.51457
H         65.85284       80.44686       75.80260
N         69.54232       80.54948       73.96423
C         70.54370       81.60602       73.86826
C         70.81446       81.90698       72.40185
O         71.04976       80.95550       71.66834
C         71.84742       81.17261       74.55827
C         71.69312       81.12566       76.08422
C         73.04612       80.84808       76.75550
C         73.00923       81.03636       78.28080
N         72.13009       80.07808       78.94948
H         69.82100       79.63283       73.58463
H         70.21201       82.51111       74.37731
H         72.62250       81.93646       74.32792
H         72.19963       80.19497       74.16009
H         70.94232       80.35829       76.36991
H         71.33530       82.12249       76.42439
H         73.78704       81.58139       76.36710
H         73.40045       79.82694       76.49503
H         72.68356       82.07416       78.51814
H         74.04316       80.90867       78.67096
H         72.17955       80.24362       79.98089
H         71.13924       80.20703       78.64559
H         72.44587       79.10195       78.74831
N         70.84668       83.16632       71.85438
C         70.73457       84.46131       72.53685
C         71.84148       84.61219       73.57853
O         71.55351       84.56764       74.76645
C         69.33673       84.77913       73.11945
C         68.19874       84.64134       72.15779
O         68.35885       84.16136       70.91134
O         67.07555       84.92842       72.53944
H         71.04063       83.21871       70.84131
H         70.87443       85.26073       71.77544
H         69.36489       85.83327       73.46764
H         69.07630       84.16756       73.99576
N         73.14859       84.79161       73.23593
C         73.57542       85.02977       71.86647
C         75.07664       85.19697       71.71791
O         75.80672       84.97496       72.67322
H         73.83974       84.83039       74.00012
H         73.08644       85.96069       71.54236
H         73.26252       84.18907       71.21291
N         75.64790       85.54359       70.52700
C         74.89572       85.89323       69.32339
C         74.20820       87.24994       69.47437
O         74.89951       88.25197       69.59781
C         75.79864       85.88187       68.05769
C         76.94497       86.87038       68.05100
O         76.99001       87.74235       67.19818
O         77.95079       86.77474       68.94141
H         76.67583       85.52728       70.48911
H         74.13722       85.09983       69.14668
H         75.14812       86.09042       67.17905
H         76.22295       84.86378       67.92277
N         72.84426       87.35335       69.47060
C         72.13082       88.62445       69.50801
C         71.36526       88.85441       70.79982
O         71.46499       88.07198       71.73352
H         72.27600       86.49514       69.41239
H         71.43402       88.65445       68.64320
H         72.83035       89.48150       69.39530
N         70.61247       89.98607       70.91612
C         69.96970       90.44857       72.14936
C         68.94066       89.48215       72.73370
O         68.06724       89.00696       72.02196
C         69.33366       91.85423       71.95773
C         68.14120       91.88298       70.98795
O         70.32428       92.74470       71.50931
H         70.56498       90.59817       70.08684
H         70.77454       90.59849       72.90375
H         68.97281       92.18793       72.95995
H         70.00003       93.66304       71.70343
H         67.30969       91.25037       71.35763
H         67.74994       92.91945       70.91373
H         68.43661       91.54478       69.97401
N         68.95555       89.22556       74.07529
C         67.94624       88.43461       74.78070
C         66.59484       89.13873       74.70179
O         66.48988       90.27348       75.14772
C         68.34678       88.22839       76.28754
C         69.53092       87.23816       76.48356
C         67.16543       87.67792       77.12053
C         70.87450       87.66322       75.89752
H         69.69990       89.66730       74.63407
H         67.86188       87.42736       74.32119
H         68.60881       89.21443       76.73411
H         69.25812       86.24350       76.06723
H         69.69904       87.11412       77.57636
H         66.83147       86.69456       76.72904
H         67.46350       87.56025       78.18431
H         66.30314       88.37749       77.12237
H         70.84316       87.70241       74.79123
H         71.18261       88.64485       76.31573
H         71.64279       86.91129       76.17472
N         65.50379       88.48296       74.20464
C         64.14734       89.03326       74.21377
C         63.16931       88.16204       75.01420
O         61.99382       88.49768       75.03514
C         63.64821       89.26481       72.76666
C         63.49873       87.97487       71.95680
O         64.52959       90.12536       72.09207
H         65.63561       87.53368       73.82518
H         64.13944       90.03314       74.70209
H         62.63702       89.73615       72.80355
H         64.37957       91.03672       72.45843
H         64.47372       87.46109       71.84182
H         62.77811       87.28658       72.44581
H         63.11086       88.21924       70.94525
N         63.57884       87.06540       75.72782
C         62.71609       86.22084       76.56396
C         61.74466       85.38305       75.72441
O         61.66945       85.55777       74.51607
C         61.98538       87.06610       77.66625
C         62.93260       87.99141       78.44218
O         61.29838       86.25425       78.58429
H         64.57770       86.82041       75.73436
H         63.38374       85.49348       77.07892
H         61.22643       87.71455       77.18350
H         61.97211       85.69903       79.05911
H         63.41706       88.72414       77.76529
H         62.35054       88.56090       79.19896
H         63.71638       87.40224       78.96242
N         60.96774       84.43460       76.32738
C         59.95225       83.63422       75.64441
C         60.49765       82.59483       74.67474
O         59.67478       81.94218       74.04540
C         59.00261       82.95735       76.66931
C         59.67673       81.95438       77.62638
C         58.64410       81.38193       78.61140
C         59.26267       80.47078       79.68607
N         60.13119       81.20920       80.60859
H         61.05753       84.32682       77.34065
H         59.31149       84.33280       75.06131
H         58.18593       82.43796       76.11942
H         58.53203       83.76209       77.27604
H         60.46465       82.47339       78.19652
H         60.14508       81.12315       77.05525
H         57.89895       80.79436       78.03136
H         58.10579       82.20850       79.12533
H         59.82748       79.63975       79.20973
H         58.42929       80.02678       80.27454
H         60.45174       80.56334       81.36526
H         60.97774       81.57730       80.12165
H         59.60246       81.99844       81.04750
N         61.83036       82.37900       74.46096
C         62.27610       81.39161       73.48178
C         61.98113       79.98820       73.97816
O         62.61847       79.53078       74.91748
C         63.77189       81.56490       73.12286
C         64.11579       82.92815       72.47134
C         63.43477       83.15492       71.13412
O         62.22001       83.23625       71.06728
O         64.15099       83.30495       69.99964
H         62.53056       82.94641       74.95843
H         61.69725       81.53955       72.55341
H         64.07914       80.76010       72.41903
H         64.37746       81.45262       74.04942
H         65.21507       82.94754       72.32069
H         63.85976       83.76062       73.16076
N         60.98904       79.25650       73.39622
C         60.65725       77.91364       73.81713
H         59.77257       77.55125       73.24961
H         61.51109       77.23417       73.61438
H         60.41092       77.89765       74.89997
H         60.42693       79.67372       72.63889
Ca        66.37419       83.63110       70.01486
O         65.81591       86.54252       69.58808
H         65.17009       86.84529       68.90147
H         66.33756       87.35231       69.81657
O         68.23594       84.14497       67.06297
H         68.19379       85.13175       66.99150
H         68.80771       83.86557       66.30419
O         68.37743       81.22115       70.04393
H         67.93273       80.71515       69.31865
H         69.11914       81.69850       69.59366

Ca 1.0



