%chk=apoCaM-CA-Ng.loop1.water3.frame1399.chk
%nprocshared=20
%mem=10GB
%nosave
#b3lyp/svp scf=(tight,noincore,xqc) Test 
#IOP(5/87=12) Density=Current Pop=(MK,readradii) iop(6/33=2) iop(6/42=6)

apoCaM-CA-Ng.loop1.water3.frame1399 

   0  1 
C         32.21061       83.63339       67.77790
C         31.63749       84.00692       66.43707
O         30.66553       83.39585       66.01980
H         33.09008       84.26155       68.03642
H         31.44054       83.77881       68.56502
H         32.52902       82.57047       67.77333
N         32.18371       85.02768       65.71927
C         31.67539       85.49531       64.42817
C         32.75360       85.47634       63.34341
O         32.51561       86.00010       62.26240
C         31.12138       86.92739       64.59266
C         32.17704       87.96995       64.87619
O         32.91343       87.92375       66.00215
O         32.35806       88.87941       64.08252
H         32.99227       85.51845       66.12671
H         30.82544       84.86335       64.09040
H         30.36274       86.93922       65.40443
H         30.60171       87.20202       63.64805
N         33.97056       84.91539       63.57279
C         35.11562       84.99913       62.66863
C         34.81038       84.49632       61.26096
O         35.08134       85.25137       60.33800
C         36.35003       84.30628       63.29585
C         36.77033       85.04189       64.58954
C         37.88411       84.32620       65.35337
C         38.18581       85.08379       66.65787
N         39.18258       84.38222       67.46245
H         34.10167       84.40437       64.45533
H         35.39658       86.07234       62.56027
H         37.20659       84.33668       62.58661
H         36.11603       83.24243       63.51110
H         35.91433       85.11969       65.28775
H         37.09064       86.07633       64.33370
H         38.79979       84.25873       64.72719
H         37.54055       83.29886       65.60482
H         37.25115       85.18097       67.25630
H         38.55169       86.10756       66.41939
H         40.07814       84.29398       66.93098
H         39.35541       84.92718       68.33827
H         38.82597       83.43379       67.72255
N         34.21844       83.30574       60.95403
C         33.71919       82.31533       61.89913
C         32.19550       82.30026       61.86665
O         31.59676       82.96393       61.03033
C         34.35242       80.93945       61.61433
C         34.22810       80.54013       60.17096
O         33.01976       80.41614       59.59810
O         35.23319       80.37315       59.49956
H         34.03902       83.12703       59.95223
H         33.98927       82.58230       62.93365
H         33.89766       80.16140       62.26322
H         35.43542       80.99805       61.86177
N         31.50123       81.65621       62.84406
C         30.06143       81.79459       63.00714
C         29.24299       80.89982       62.10701
O         29.78865       80.13829       61.32725
H         32.02918       81.18184       63.59303
H         29.76735       82.86072       62.89556
H         29.80332       81.48874       64.04416
N         27.88479       80.93372       62.21913
C         26.95703       79.97860       61.60243
C         26.04531       79.41220       62.70654
O         26.14343       79.90003       63.82515
C         26.13632       80.71906       60.52895
C         27.01977       81.24277       59.43249
O         27.68095       80.47120       58.75585
O         27.07512       82.56452       59.18207
H         27.47951       81.66758       62.82234
H         27.51768       79.14344       61.13075
H         25.58826       81.56404       61.00078
H         25.39528       80.05504       60.05561
N         25.12309       78.41184       62.55315
C         24.85845       77.58315       61.38960
C         26.01185       76.66932       61.09510
O         26.52006       76.04236       62.01371
H         24.55481       78.18112       63.38425
H         24.52855       78.16605       60.51092
H         24.00952       76.91266       61.64685
N         26.43583       76.48240       59.81788
C         27.55336       75.60842       59.49106
C         28.82621       76.22353       60.04661
O         29.07800       77.38190       59.77407
C         27.62750       75.37136       57.95910
C         28.70918       74.34844       57.58136
O         27.85081       76.57579       57.26928
H         25.93034       76.96213       59.05734
H         27.37541       74.60417       59.93827
H         26.65991       74.91722       57.63251
H         26.98057       76.87565       56.89730
H         28.70974       74.18689       56.48189
H         29.71930       74.68211       57.88961
H         28.50787       73.37450       58.07573
N         29.67037       75.50209       60.83297
C         30.94034       75.98564       61.37515
C         31.88713       76.40998       60.20078
O         32.02846       77.81356       60.16536
C         30.77322       77.08930       62.47488
C         29.74325       76.67774       63.55277
C         32.13745       77.42405       63.12914
C         29.42876       77.79792       64.55223
H         29.42325       74.52033       61.03061
H         31.38315       75.10733       61.89673
H         30.37878       77.98959       61.98440
H         30.09648       75.77724       64.09881
H         28.78714       76.42981       63.05393
H         32.89893       77.73938       62.39109
H         32.05227       78.27040       63.83836
H         32.53501       76.53806       63.66756
H         30.31310       78.06921       65.16236
H         29.06256       78.70046       64.01844
H         28.63600       77.45940       65.25066
N         33.21786       75.82548       60.40273
C         34.18980       76.12809       59.33862
C         34.29000       75.07525       58.23518
O         35.15292       75.27095       57.39370
C         35.57017       76.37732       59.98955
C         36.13013       75.15129       60.71326
O         35.45879       77.43415       60.91045
H         33.21137       74.81404       60.66448
H         33.92861       77.08600       58.83239
H         36.29556       76.64638       59.18165
H         36.03609       78.17439       60.58987
H         37.12621       75.39865       61.13680
H         35.46167       74.84676       61.54522
H         36.24981       74.30089       60.00990
N         33.49143       73.95863       58.14065
C         33.65119       72.99130       57.04697
C         33.37508       73.71868       55.73906
O         32.22811       74.03565       55.45688
C         32.74207       71.75318       57.25334
C         32.97499       70.67956       56.18416
O         33.01716       71.19708       58.51467
H         32.76077       73.78549       58.84288
H         34.70640       72.63666       57.07492
H         31.67856       72.08991       57.21535
H         32.20114       70.71052       58.80403
H         34.02861       70.32727       56.21460
H         32.31031       69.80989       56.37779
H         32.75042       71.07055       55.17055
N         34.43395       74.20638       55.02321
C         34.35828       75.25313       54.00504
C         33.69485       76.51332       54.55018
O         33.15861       76.48877       55.64663
C         33.65878       74.79716       52.71320
C         34.31362       73.54759       52.11980
C         33.75192       73.25393       50.72550
C         34.32704       71.94679       50.17096
N         33.85667       71.70690       48.80779
H         35.38428       73.92860       55.31199
H         35.40597       75.52500       53.74160
H         33.73765       75.62480       51.97415
H         32.57989       74.59848       52.89284
H         34.12782       72.68891       52.80130
H         35.41141       73.70313       52.02723
H         34.02071       74.09624       50.04880
H         32.64396       73.17219       50.76904
H         34.00860       71.10604       50.82710
H         35.43886       71.99141       50.16946
H         34.22360       70.78540       48.47764
H         32.81137       71.68669       48.78176
H         34.21115       72.45896       48.17274
N         33.70397       77.67140       53.84190
C         32.96480       78.86366       54.25372
C         33.25876       79.28913       55.69022
O         32.29806       79.43941       56.42686
C         33.15931       80.03796       53.27458
C         32.64087       79.71065       51.86458
C         32.81105       80.88839       50.95222
O         34.04108       81.37831       50.70454
O         31.83869       81.40043       50.42149
H         34.24522       77.69265       52.96500
H         31.87690       78.61829       54.22046
H         34.22533       80.32822       53.22032
H         32.57896       80.90866       53.65599
H         31.56467       79.43428       51.92448
H         33.19408       78.85744       51.42371
N         34.50014       79.49021       56.21314
C         35.74652       79.29846       55.51197
H         36.59004       79.50225       56.20575
H         35.84068       78.24877       55.17052
H         35.83112       79.99851       54.66265
H         34.55916       79.76951       57.20220
Ca        30.77219       79.03761       58.68825
O         30.91853       76.75138       56.87837
H         30.25587       76.88072       57.59341
H         30.57342       77.28433       56.12015
O         29.19373       80.05562       56.21764
H         29.38681       79.49847       55.42277
H         29.20754       80.98615       55.87987
O         30.31815       82.28598       58.22693
H         31.26398       82.48404       58.44130
H         29.80085       82.73807       58.93969

Ca 1.0



