%chk=apoCaM-CA-Ng.loop2.water4.frame1370.chk
%nprocshared=20
%mem=10GB
%nosave
#b3lyp/svp scf=(tight,noincore,xqc) Test 
#IOP(5/87=12) Density=Current Pop=(MK,readradii) iop(6/33=2) iop(6/42=6)

apoCaM-CA-Ng.loop2.water4.frame1370 

   -2  1 
C          7.93175       56.19029       61.12036
C          9.18258       56.57706       60.37685
O          9.06316       57.20860       59.33725
H          7.02889       56.55344       60.58416
H          7.86629       55.08392       61.19524
H          7.93494       56.63784       62.13598
N         10.43441       56.23809       60.80437
C         10.71887       55.48660       62.02700
C         11.28818       54.10162       61.74532
O         11.40732       53.33608       62.69240
C         11.64476       56.30031       62.96633
C         13.01778       56.60631       62.41059
O         13.34844       56.24241       61.29645
O         13.90740       57.29015       63.15015
H         11.22357       56.53080       60.21002
H          9.77800       55.30429       62.58336
H         11.77859       55.73464       63.91396
H         11.14617       57.26236       63.21174
N         11.65382       53.69751       60.49164
C         12.11632       52.34651       60.19317
C         13.58591       52.29916       59.80027
O         14.06496       51.20569       59.53175
C         11.24077       51.76878       59.07567
H         11.59968       54.35781       59.70306
H         12.01008       51.68864       61.08308
H         11.34105       52.37919       58.15159
H         11.53404       50.72261       58.84555
H         10.17495       51.77174       59.38893
N         14.37325       53.41600       59.76718
C         15.78974       53.38789       59.41195
C         16.67037       53.85802       60.56268
O         16.16899       54.32622       61.57619
C         16.01961       54.21400       58.12973
C         15.57141       55.64657       58.26406
O         14.68612       56.08043       57.54395
O         16.14052       56.45717       59.17488
H         13.96447       54.32733       59.99686
H         16.10603       52.34456       59.19544
H         15.44596       53.73444       57.30591
H         17.09329       54.19499       57.84719
N         18.02071       53.68815       60.47662
C         18.95548       54.01732       61.54101
C         19.18294       55.50095       61.70752
O         18.57655       56.30320       61.01110
H         18.40520       53.22587       59.63873
H         19.94443       53.58290       61.27794
H         18.62432       53.55454       62.49600
N         20.10738       55.92876       62.61697
C         20.45907       57.33786       62.80923
C         21.09372       57.88114       61.52026
O         21.44596       57.08218       60.66076
C         21.43635       57.43306       64.01849
C         21.66550       58.78942       64.64484
N         22.54704       58.90842       65.66539
O         21.04161       59.77119       64.27981
H         20.58015       55.21114       63.18997
H         19.51569       57.87721       63.04579
H         22.41231       56.99348       63.71392
H         21.03096       56.81073       64.84659
H         23.07345       58.08968       66.00489
H         22.70466       59.82033       66.11972
N         21.26379       59.21718       61.29388
C         21.86656       59.73507       60.07217
C         21.02995       59.43086       58.83972
O         19.95917       58.85734       58.97713
H         20.96076       59.90292       61.99193
H         22.87987       59.29158       59.96748
H         21.97002       60.83885       60.15252
N         21.43328       59.75334       57.57581
C         22.69508       60.40532       57.23224
C         22.48968       61.69534       56.43204
O         23.48676       62.31858       56.09670
C         23.58530       59.41348       56.43716
C         23.96135       58.17590       57.27173
O         22.97700       59.04044       55.22278
H         20.81433       59.47218       56.79901
H         23.25565       60.69108       58.14556
H         24.54449       59.91723       56.18805
H         22.28892       58.35091       55.41512
H         24.62275       57.50800       56.68046
H         24.50600       58.48455       58.18921
H         23.05841       57.60187       57.57069
N         21.24991       62.15452       56.07855
C         21.01346       63.35570       55.27642
C         20.12295       64.32626       56.06256
O         19.05114       63.90907       56.47788
C         20.35680       62.94976       53.92235
C         21.30581       62.07472       53.05254
C         19.86747       64.16949       53.11629
C         22.57397       62.78294       52.54436
H         20.41410       61.62466       56.36074
H         21.95703       63.84597       55.01304
H         19.45459       62.33918       54.14964
H         20.74291       61.72303       52.16107
H         21.61077       61.17470       53.62714
H         19.39981       63.83846       52.16505
H         19.09511       64.72590       53.68525
H         20.69370       64.87107       52.88510
H         23.22334       63.12470       53.37421
H         23.16778       62.07689       51.92756
H         22.32089       63.65047       51.90062
N         20.42840       65.65096       56.25604
C         21.63785       66.29401       55.74758
C         21.56120       67.81385       55.70148
O         20.78116       68.42844       56.41591
C         22.88548       65.89376       56.58880
C         22.82018       66.29074       58.04772
O         23.86367       66.01066       58.85094
O         21.84142       66.84905       58.51835
H         19.71562       66.23466       56.72091
H         21.75158       65.99392       54.68563
H         23.78710       66.36561       56.14266
H         23.04612       64.80367       56.57543
N         22.43738       68.47499       54.89264
C         22.67315       69.90963       54.91761
C         22.38875       70.55215       53.56390
O         22.98358       70.11234       52.58746
C         24.16948       70.10515       55.24605
C         24.56405       71.55579       55.31953
C         25.43577       72.10313       54.36196
C         24.06670       72.37212       56.34619
C         25.79803       73.45048       54.43044
C         24.43710       73.71731       56.41525
C         25.30066       74.25674       55.45756
H         23.03959       67.91319       54.26905
H         22.07824       70.38853       55.71747
H         24.76629       69.59459       54.45549
H         24.42228       69.61214       56.20969
H         25.82791       71.49163       53.55811
H         23.39864       71.96395       57.09430
H         26.46475       73.86836       53.68730
H         24.05459       74.34064       57.21219
H         25.58521       75.29887       55.51164
N         21.58161       71.65196       53.41337
C         20.80856       72.31741       54.45650
C         19.73938       71.42373       55.03884
O         19.63454       71.31916       56.25214
C         20.14873       73.50016       53.72940
C         21.17178       73.81324       52.66308
C         21.52343       72.40983       52.17914
H         21.50123       72.70627       55.23437
H         19.23533       73.16842       53.18439
H         19.86511       74.34352       54.39529
H         20.82538       74.50614       51.86757
H         22.06580       74.25336       53.16343
H         20.71842       71.99080       51.53534
H         22.49023       72.44300       51.63128
N         18.92110       70.72534       54.20434
C         17.85458       69.85202       54.66606
C         16.64970       70.70633       55.03515
O         16.13846       71.38782       54.15700
C         17.47295       68.85912       53.54458
C         18.65031       67.93204       53.18862
C         18.30600       67.04675       52.02665
O         17.26680       66.19431       52.10586
O         18.97267       67.09138       51.00465
H         19.08872       70.79817       53.18859
H         18.21969       69.24071       55.51752
H         17.16347       69.42812       52.63902
H         16.61447       68.23329       53.87505
H         18.90766       67.30260       54.06745
H         19.54752       68.53133       52.92109
N         16.11717       70.75557       56.28845
C         16.63825       70.02188       57.41932
H         17.68242       70.33204       57.62683
H         16.02865       70.24336       58.32118
H         16.59540       68.93068       57.22266
H         15.29564       71.35957       56.44938
Ca        15.93236       57.63817       62.20171
O         16.59674       60.44302       62.81226
H         16.28003       60.42430       63.75007
H         17.58119       60.36284       62.87946
O         17.15389       56.63967       64.72730
H         16.17533       56.59140       64.87220
H         17.40923       55.72334       64.45354
O         13.79758       59.57047       60.56432
H         14.25684       60.44268       60.46777
H         13.95695       59.10830       59.70313
O         16.73573       59.40178       59.64111
H         17.65813       59.65128       59.89701
H         16.79838       59.14616       58.68669

Ca 1.0



