%chk=apoCaM-CA-Ng.loop1.water3.frame1193.chk
%nprocshared=20
%mem=10GB
%nosave
#b3lyp/svp scf=(tight,noincore,xqc) Test 
#IOP(5/87=12) Density=Current Pop=(MK,readradii) iop(6/33=2) iop(6/42=6)

apoCaM-CA-Ng.loop1.water3.frame1193 

   0  1 
C         40.18360        5.18487       91.04635
C         40.48381        6.23484       92.07301
O         39.72885        6.34372       93.02893
H         39.20001        5.39507       90.57550
H         40.96026        5.15681       90.25444
H         40.14378        4.19170       91.54095
N         41.55640        7.06773       91.92847
C         41.88762        8.10500       92.90014
C         41.55629        9.47321       92.34404
O         42.38968       10.36977       92.35444
C         43.35053        7.96470       93.38886
C         44.41796        8.15107       92.33197
O         44.13694        8.40826       91.17159
O         45.71291        8.04708       92.68405
H         42.13207        6.98134       91.07892
H         41.24141        7.99797       93.79612
H         43.47624        6.95593       93.83628
H         43.53001        8.71722       94.18763
N         40.30453        9.70455       91.86299
C         39.86287       11.01720       91.41698
C         39.87927       11.97910       92.59623
O         40.55893       12.99005       92.49003
C         38.49248       10.96755       90.68647
C         38.45511        9.96396       89.50887
C         39.54173       10.22228       88.44839
C         39.54382        9.19219       87.30874
N         38.30904        9.21450       86.52591
H         39.64267        8.91615       91.83429
H         40.58504       11.40068       90.66624
H         38.26844       11.98539       90.29914
H         37.66185       10.70068       91.36615
H         37.45042       10.03874       89.04289
H         38.56691        8.92788       89.89148
H         40.54321       10.14141       88.91736
H         39.42403       11.24664       88.03398
H         39.71101        8.17180       87.72108
H         40.39859        9.43199       86.63755
H         37.50198        8.88581       87.10146
H         38.12801       10.17939       86.16594
H         38.41579        8.56478       85.71381
N         39.25403       11.74106       93.78967
C         38.42518       10.58011       94.11394
C         39.11213        9.66019       95.10577
O         40.19057        9.96601       95.59292
C         37.03383       11.05090       94.57669
C         37.11464       12.02739       95.71278
O         37.61278       11.65845       96.90822
O         36.75460       13.17873       95.53502
H         39.41021       12.43133       94.54145
H         38.26232        9.94280       93.23808
H         36.38902       10.19439       94.86507
H         36.54733       11.55753       93.71370
N         38.55281        8.44812       95.37263
C         39.15703        7.43083       96.21368
C         39.26667        7.86290       97.67767
O         38.04283        8.40985       98.06659
H         37.66325        8.20312       94.91129
H         40.15747        7.14733       95.82323
H         38.50661        6.52815       96.17125
N         39.60110        6.68144       98.49036
C         39.61072        6.84954       99.96137
C         39.39140        5.46459      100.59701
O         39.57817        4.47652       99.89965
C         40.98648        7.39382      100.46854
C         41.49878        8.73707       99.98485
O         40.83356        9.88629      100.21694
O         42.60088        8.79745       99.46435
H         40.49474        6.24752       98.15884
H         38.75859        7.48623      100.26377
H         41.75770        6.63416      100.21008
H         40.97722        7.46322      101.56811
N         39.03901        5.26135      101.90643
C         38.62897        6.29430      102.84312
C         37.25302        6.81859      102.51596
O         36.59118        6.28612      101.63491
H         39.01675        4.29017      102.25561
H         39.36699        7.11200      102.87756
H         38.56805        5.86865      103.86822
N         36.76835        7.89922      103.18941
C         35.47388        8.51384      102.89812
C         35.37632        8.81968      101.42221
O         36.32950        9.33452      100.86634
C         35.28255        9.83169      103.70196
C         35.16978        9.59466      105.21175
O         34.14342       10.53337      103.26132
H         37.38246        8.33652      103.89321
H         34.65120        7.81614      103.17034
H         36.16317       10.48429      103.51487
H         33.36262        9.92442      103.33087
H         35.05406       10.57017      105.73063
H         34.27867        8.96941      105.43396
H         36.07098        9.09115      105.61428
N         34.22551        8.54562      100.74226
C         33.99308        8.82055       99.32896
C         34.23633       10.29000       99.02456
O         35.38019       10.71699       98.94085
C         34.82649        7.88920       98.40550
C         34.50867        6.40012       98.68518
C         34.60320        8.23587       96.91489
C         35.44578        5.43379       97.95361
H         33.43258        8.15004      101.26979
H         32.92162        8.59410       99.12771
H         35.87940        8.05637       98.65548
H         33.45442        6.17805       98.41107
H         34.63225        6.19783       99.76933
H         34.86799        9.29228       96.70419
H         35.25076        7.62915       96.25222
H         33.54107        8.07639       96.63224
H         35.19477        4.39095       98.23882
H         35.34304        5.51091       96.85308
H         36.50134        5.63378       98.23887
N         33.18377       11.11161       98.79331
C         33.32939       12.49608       98.37471
C         32.70615       13.47762       99.35387
O         32.73309       14.65646       99.04224
C         32.75389       12.65419       96.94386
C         31.27779       12.25926       96.82984
O         33.48850       11.85688       96.05263
H         32.23349       10.72555       98.88861
H         34.40249       12.78575       98.31457
H         32.83561       13.72177       96.63097
H         34.34519       12.32837       95.89171
H         30.92819       12.43650       95.79178
H         31.13439       11.17893       97.04077
H         30.65390       12.85524       97.52689
N         32.14989       13.09382      100.54705
C         31.56076       14.04634      101.49470
C         32.64936       14.99262      101.99654
O         33.37774       14.62998      102.90944
C         30.87100       13.27643      102.65462
C         30.14190       14.20196      103.63066
O         29.93398       12.37812      102.11203
H         32.13675       12.09365      100.79119
H         30.77478       14.62123      100.95607
H         31.65838       12.71498      103.21605
H         30.02221       11.52018      102.60510
H         29.66882       13.59367      104.43187
H         30.84519       14.91624      104.10573
H         29.34611       14.76775      103.10124
N         32.89669       16.16239      101.32917
C         34.06462       17.02544      101.52232
C         35.36277       16.28071      101.22663
O         35.48071       15.11329      101.56516
C         34.09251       17.74966      102.87734
C         32.79917       18.55897      103.09076
C         32.88670       19.58443      104.23026
C         33.21636       18.97685      105.59850
N         33.20522       20.01258      106.63241
H         32.25338       16.43346      100.57084
H         33.99282       17.83895      100.76374
H         34.95521       18.45299      102.84962
H         34.24528       17.03724      103.71446
H         31.95363       17.85813      103.26425
H         32.57688       19.14493      102.17127
H         31.90421       20.10228      104.29078
H         33.65957       20.34325      103.97650
H         34.22489       18.50983      105.56653
H         32.46829       18.19475      105.85280
H         33.46196       19.58582      107.55127
H         33.89763       20.76258      106.40219
H         32.24948       20.43122      106.70892
N         36.38294       16.88292      100.55130
C         37.56443       16.13415      100.13218
C         37.15686       15.01690       99.17696
O         37.46991       13.87611       99.48191
C         38.65727       17.03517       99.52142
C         39.29894       17.94776      100.57638
C         40.40057       18.76815       99.96941
O         41.66639       18.62930      100.40845
O         40.15539       19.56470       99.07747
H         36.30120       17.88076      100.30307
H         38.03239       15.65725      101.02529
H         38.25948       17.65113       98.69594
H         39.46291       16.38075       99.11804
H         39.72766       17.31753      101.38731
H         38.54186       18.62667      101.02168
N         36.43228       15.19900       98.03495
C         35.95034       16.46338       97.52388
H         35.28092       16.95550       98.25593
H         36.79040       17.12322       97.24480
H         35.36223       16.28560       96.59842
H         36.17594       14.36060       97.50027
Ca        38.71215        9.88142       99.61956
O         39.88737       12.70122      100.96239
H         39.76432       13.47866      101.56267
H         40.65243       12.95182      100.38612
O         36.47930       12.05748      101.37290
H         36.68363       12.85129      101.92548
H         35.49259       12.05585      101.29007
O         40.66772       11.89415       97.81701
H         40.96190       10.95053       97.86373
H         41.43548       12.36879       97.41143

Ca 1.0



