%chk=apoCaM-CA-Ng.loop2.water5.frame1096.chk
%nprocshared=20
%mem=10GB
%nosave
#b3lyp/svp scf=(tight,noincore,xqc) Test 
#IOP(5/87=12) Density=Current Pop=(MK,readradii) iop(6/33=2) iop(6/42=6)

apoCaM-CA-Ng.loop2.water5.frame1096 

   -2  1 
C         34.05784       65.87037       70.68128
C         34.38546       64.49185       70.16851
O         35.53013       64.30755       69.78070
H         33.03446       66.00673       71.06219
H         34.74737       66.10341       71.52094
H         34.22704       66.61133       69.87270
N         33.51351       63.44001       70.13458
C         32.10285       63.43440       70.52234
C         31.24741       62.95054       69.34991
O         31.76922       62.85077       68.24730
C         31.95352       62.62876       71.83284
C         32.42343       61.20509       71.76408
O         33.46150       60.80321       72.52140
O         31.84638       60.39601       71.06239
H         33.89494       62.53618       69.81167
H         31.72341       64.44066       70.76653
H         30.90297       62.64915       72.18881
H         32.56248       63.15287       72.60244
N         29.91767       62.65565       69.49947
C         29.02459       62.30234       68.39104
C         29.46544       61.07937       67.58095
O         28.87082       60.83597       66.53943
C         28.84240       63.52480       67.47750
H         29.49557       62.71422       70.43661
H         28.01331       62.08076       68.79912
H         29.79172       63.82240       66.98863
H         28.09168       63.30778       66.68692
H         28.46094       64.38079       68.07483
N         30.47517       60.25733       67.98934
C         30.99700       59.15549       67.19721
C         30.57589       57.75998       67.75423
O         30.59649       57.58256       69.14457
C         32.50796       59.39928       66.83570
C         33.49417       60.02875       67.82304
O         34.01961       61.08952       67.52391
O         33.88617       59.43847       68.96642
H         30.91615       60.41418       68.89789
H         30.50168       59.12024       66.20131
H         32.47526       60.13169       65.99732
H         32.94939       58.47646       66.40598
N         31.23297       56.68845       66.99276
C         31.35413       55.37837       67.64123
C         32.28189       54.46396       66.85900
O         32.54733       53.37149       67.33907
H         30.70925       56.58268       66.09294
H         30.35545       54.90685       67.76099
H         31.81789       55.50089       68.64224
N         32.84662       54.85153       65.67382
C         33.85752       54.07804       64.96370
C         35.12595       54.88948       64.88417
O         35.09574       56.09267       65.11063
C         33.41452       53.78282       63.51467
C         32.27647       52.80444       63.42222
N         32.42394       51.65506       62.71995
O         31.20973       53.05394       63.96245
H         32.60936       55.76578       65.26497
H         34.08905       53.13158       65.49998
H         34.27677       53.36899       62.94639
H         33.12225       54.73534       63.01809
H         33.31148       51.43524       62.24254
H         31.64666       50.98430       62.63967
N         36.29209       54.27982       64.54043
C         37.51523       55.02195       64.31644
C         38.12742       54.66737       62.97706
O         37.64236       53.75874       62.31780
H         36.31145       53.25332       64.43588
H         38.24545       54.76754       65.11167
H         37.30779       56.10875       64.35524
N         39.23706       55.29947       62.50302
C         39.85625       56.46131       63.13308
C         40.01211       57.59628       62.14111
O         39.81094       57.41506       60.94613
C         41.23927       56.08670       63.72006
C         41.09440       55.16595       64.93421
O         42.02967       55.47666       62.73121
H         39.65829       54.94024       61.63044
H         39.24045       56.86327       63.95715
H         41.74096       57.01347       64.07953
H         42.96244       55.46813       63.07050
H         40.48760       55.67420       65.71570
H         40.60926       54.20806       64.65678
H         42.09424       54.95276       65.36639
N         40.45292       58.79818       62.60080
C         40.92906       59.87008       61.74950
C         42.43064       59.94217       62.02031
O         42.78945       60.31264       63.13074
C         40.19371       61.21557       62.03799
C         38.72387       61.12507       61.54118
C         40.92536       62.39723       61.36220
C         37.88275       62.37174       61.83107
H         40.58101       58.91637       63.61821
H         40.71622       59.65411       60.69330
H         40.20763       61.39929       63.13532
H         38.22497       60.26213       62.03153
H         38.71264       60.95045       60.44140
H         41.96942       62.47723       61.72962
H         40.94379       62.27748       60.25853
H         40.45165       63.36444       61.62130
H         37.84810       62.56852       62.92251
H         38.27650       63.26522       61.30611
H         36.84781       62.21141       61.46162
N         43.39236       59.61195       61.10662
C         43.13994       59.08741       59.76595
C         43.23967       60.19880       58.74826
O         43.72911       61.27208       59.07124
C         44.03387       57.86454       59.45501
C         45.52216       58.11847       59.42971
O         46.35657       57.08792       59.19621
O         45.98771       59.23254       59.60958
H         44.37172       59.77068       61.38470
H         42.12190       58.68280       59.68872
H         43.74678       57.44750       58.46536
H         43.83088       57.08603       60.22322
N         42.69712       60.03419       57.50835
C         42.71451       61.09630       56.51003
C         41.85690       60.69524       55.31418
O         42.12348       59.63088       54.77406
C         44.16705       61.32373       56.01963
C         44.28440       62.61471       55.25560
C         44.48004       62.62808       53.86563
C         44.20824       63.83195       55.95417
C         44.58725       63.84684       53.18608
C         44.32945       65.04472       55.27457
C         44.51554       65.05311       53.89047
H         42.21856       59.14501       57.29899
H         42.32224       62.02101       56.98184
H         44.48115       60.45087       55.40430
H         44.89272       61.38313       56.85752
H         44.53710       61.70129       53.30868
H         44.06882       63.83800       57.02873
H         44.72823       63.85752       52.11338
H         44.28045       65.97650       55.82307
H         44.60579       65.99483       53.36538
N         40.85303       61.47445       54.78956
C         40.49613       62.83272       55.19270
C         39.70669       62.92865       56.48832
O         39.52316       61.92640       57.16545
C         39.62878       63.33746       54.02228
C         40.13278       62.50604       52.85762
C         40.22114       61.14832       53.52720
H         41.42215       63.44796       55.22304
H         38.56845       63.03248       54.18120
H         39.65445       64.43778       53.86921
H         39.48058       62.53274       51.95950
H         41.16006       62.83923       52.58293
H         39.19214       60.77229       53.73281
H         40.76425       60.40132       52.91075
N         39.17217       64.12869       56.86127
C         38.34256       64.33138       58.04759
C         38.08988       65.82869       58.27353
O         36.94639       66.26199       58.26617
C         37.01580       63.51789       57.96235
C         36.16467       63.79424       56.70439
C         34.85330       63.06201       56.77702
O         34.82732       61.84401       56.85336
O         33.69563       63.75154       56.75862
H         39.36041       64.94498       56.25782
H         38.89114       63.97378       58.94485
H         36.41663       63.74376       58.87260
H         37.24096       62.43152       57.98966
H         36.71325       63.47051       55.79536
H         35.94251       64.87404       56.60024
N         39.10363       66.70576       58.52276
C         40.49512       66.32398       58.63210
H         41.10813       67.21733       58.87436
H         40.62154       65.58069       59.44692
H         40.86956       65.90693       57.67728
H         38.86825       67.69952       58.67371
Ca        32.72251       57.75144       69.69769
O         30.91742       58.29852       73.06234
H         29.99657       58.14708       73.39249
H         31.28903       58.98687       73.66952
O         34.81217       55.78272       70.21224
H         35.04587       55.78904       69.25002
H         34.39691       54.89698       70.36240
O         35.60920       58.58677       71.52228
H         36.37697       57.97527       71.39224
H         35.81681       59.37008       70.95358
O         33.71385       56.92218       73.46222
H         33.11409       56.61275       74.18684
H         34.61298       56.94310       73.87638
O         31.24366       55.45868       71.55866
H         30.55870       55.08751       70.94753
H         32.03770       54.88412       71.41927

Ca 1.0



