%chk=apoCaM-CA-Ng.loop3.water2.frame992.chk
%nprocshared=20
%mem=10GB
%nosave
#b3lyp/svp scf=(tight,noincore,xqc) Test 
#IOP(5/87=12) Density=Current Pop=(MK,readradii) iop(6/33=2) iop(6/42=6)

apoCaM-CA-Ng.loop3.water2.frame992 

   0  1 
C         70.60973      120.21848       60.66174
C         70.83983      121.34912       61.61519
O         69.89265      122.04899       61.93608
H         69.54277      120.17951       60.35162
H         71.24536      120.34356       59.76231
H         70.86260      119.26229       61.16696
N         72.08787      121.58665       62.10933
C         72.37673      122.59304       63.12387
C         73.19891      123.69785       62.50198
O         74.31916      123.44421       62.07983
C         73.10453      121.88895       64.28852
C         73.30942      122.69227       65.53468
O         73.71535      122.12187       66.53454
O         72.91710      123.97037       65.63747
H         72.86975      121.00868       61.76358
H         71.42472      123.02445       63.50715
H         74.08155      121.48453       63.94947
H         72.47138      121.03016       64.59268
N         72.66644      124.94522       62.34289
C         73.38396      126.01071       61.64833
C         74.55593      126.53468       62.46802
O         75.41471      127.19157       61.89656
C         72.44913      127.18295       61.26799
C         71.28123      126.73146       60.36383
C         70.33484      127.87448       59.96124
C         70.98924      128.90694       59.02888
N         70.02145      129.92506       58.62008
H         71.69988      125.10937       62.65945
H         73.77630      125.58271       60.69780
H         73.05496      127.93973       60.72757
H         72.04194      127.65132       62.19056
H         70.66520      125.98679       60.90886
H         71.67450      126.24157       59.44652
H         69.94055      128.37347       60.87350
H         69.47633      127.42198       59.41780
H         71.37396      128.38815       58.12247
H         71.84055      129.40647       59.53680
H         69.21808      129.48008       58.11908
H         69.67069      130.44400       59.45765
H         70.48778      130.60122       57.97298
N         74.63191      126.32850       63.81571
C         75.72791      126.80108       64.65562
C         76.42577      125.65383       65.38999
O         77.36626      125.92469       66.12293
C         75.21522      127.91716       65.59751
C         74.02173      127.55740       66.44479
O         72.97663      128.17402       66.31406
O         74.09901      126.59743       67.37793
H         73.85975      125.84093       64.28737
H         76.51913      127.27522       64.03438
H         74.92106      128.77563       64.95359
H         76.04095      128.26475       66.25486
N         76.07171      124.34722       65.20043
C         76.77006      123.21549       65.79693
C         76.64516      123.07994       67.30568
O         77.21657      122.13082       67.82526
H         75.32340      124.11734       64.53692
H         77.84481      123.27025       65.51912
H         76.35977      122.27983       65.35698
N         75.94538      123.96079       68.07992
C         75.85864      123.86388       69.53701
C         74.41173      123.86991       70.01968
O         73.51605      124.16489       69.24709
C         76.57419      125.07875       70.16359
C         78.00196      125.21034       69.69444
N         78.40299      126.30996       69.01192
O         78.80304      124.31918       69.93272
H         75.48874      124.75643       67.63190
H         76.34780      122.92855       69.88836
H         76.56871      124.99965       71.27173
H         76.01333      125.99904       69.88512
H         77.74241      127.07217       68.79798
H         79.37747      126.40155       68.68932
N         74.12463      123.59239       71.32190
C         72.81002      123.73557       71.94069
C         71.69678      122.94781       71.27428
O         71.85964      121.75840       71.04334
H         74.89987      123.30033       71.93761
H         72.53914      124.81249       71.97152
H         72.89119      123.38741       72.99289
N         70.49221      123.55297       71.01992
C         69.33188      122.87342       70.43240
C         69.49829      122.73440       68.90161
O         70.77002      122.28013       68.58361
C         68.04079      123.68971       70.72493
C         67.59775      123.63948       72.16228
C         67.23973      122.40723       72.73782
C         67.46580      124.81444       72.91760
C         66.75383      122.35177       74.04484
C         66.97724      124.75660       74.22738
C         66.61564      123.52828       74.79341
O         66.12780      123.49093       76.04951
H         70.37532      124.53095       71.32726
H         69.23486      121.85738       70.87247
H         67.16508      123.29490       70.18492
H         68.18526      124.73533       70.37222
H         67.31615      121.48934       72.16797
H         67.72108      125.77520       72.48852
H         66.47265      121.39541       74.46797
H         66.86612      125.66951       74.79806
H         65.84823      122.66337       76.46689
N         68.47117      121.84716       68.28556
C         68.49400      121.68207       66.80696
C         68.46238      123.03337       66.09293
O         69.32141      123.84948       66.34926
C         69.65622      120.75449       66.32733
C         69.59352      120.45337       64.80757
C         69.68746      119.44083       67.13212
C         68.34583      119.71192       64.31233
H         67.51712      122.19867       68.50174
H         67.56352      121.13561       66.54373
H         70.62809      121.26130       66.48673
H         70.47534      119.83727       64.52776
H         69.66613      121.41415       64.26811
H         68.73410      118.88191       67.03212
H         70.52227      118.79511       66.78443
H         69.85262      119.64560       68.21036
H         68.25016      118.71820       64.79489
H         67.42361      120.29827       64.48834
H         68.43241      119.54942       63.21710
N         67.51959      123.34651       65.16227
C         67.48184      124.66344       64.51847
C         66.12496      125.33812       64.62510
O         66.01082      126.46459       64.15924
C         67.91391      124.54298       63.05124
O         67.02885      123.73595       62.32190
H         66.84396      122.62349       64.87593
H         68.20641      125.35517       64.99947
H         68.95322      124.14876       62.99603
H         67.94914      125.54849       62.57860
H         67.32924      122.79829       62.44370
N         65.04175      124.72561       65.18691
C         63.72491      125.35087       65.19719
C         63.69088      126.57379       66.10411
O         64.57039      126.69889       66.94583
C         62.68365      124.33702       65.67147
H         65.12954      123.77190       65.56260
H         63.49409      125.63670       64.14884
H         61.67617      124.77579       65.63860
H         62.69501      123.44475       65.01043
H         62.90157      124.01513       66.71315
N         62.73469      127.54776       66.01315
C         61.75817      127.66789       64.93230
C         60.50431      128.40036       65.40641
O         60.65120      129.42072       66.06559
C         62.39327      128.48166       63.80080
H         62.85179      128.36176       66.63791
H         61.50769      126.68632       64.49708
H         62.68052      129.49542       64.15270
H         63.30349      127.96843       63.42436
H         61.67937      128.58151       62.95504
N         59.23291      128.04377       65.04441
C         58.90644      126.94504       64.13950
C         59.07029      125.57311       64.77409
O         59.02668      124.59326       64.04276
C         57.47247      127.07877       63.55194
C         56.30046      126.75129       64.50694
C         56.16553      127.68704       65.67087
O         55.94530      128.87342       65.48507
O         56.26162      127.21577       66.92888
H         58.48292      128.68185       65.34014
H         59.59399      127.03898       63.26965
H         57.39220      126.35387       62.71169
H         57.34160      128.09367       63.11619
H         56.41145      125.71101       64.88042
H         55.35256      126.79428       63.92852
N         59.19007      125.41715       66.12509
C         59.27340      124.12151       66.77153
H         60.20251      124.06582       67.37483
H         58.40322      123.99373       67.44800
H         59.27670      123.28228       66.04407
H         59.18737      126.24237       66.74079
Ca        71.58834      124.02404       67.38774
O         69.40383      126.53792       67.87172
H         68.47303      126.23386       67.72391
H         69.49726      127.33889       67.29708
O         70.59364      126.57326       64.72601
H         71.55737      126.74731       64.58753
H         70.15976      126.91981       63.90629

Ca 1.0



