%chk=apoCaM-CA-Ng.loop2.water3.frame1289.chk
%nprocshared=20
%mem=10GB
%nosave
#b3lyp/svp scf=(tight,noincore,xqc) Test 
#IOP(5/87=12) Density=Current Pop=(MK,readradii) iop(6/33=2) iop(6/42=6)

apoCaM-CA-Ng.loop2.water3.frame1289 

   -2  1 
C         71.55075       56.19034       14.13198
C         70.14790       56.55583       13.70189
O         70.04030       57.15421       12.64152
H         72.15426       57.12133       14.18350
H         71.65681       55.70960       15.11650
H         72.00417       55.51788       13.37523
N         69.01103       56.29857       14.41972
C         68.93128       55.56408       15.68228
C         68.68007       56.47435       16.87255
O         68.78708       55.98534       17.98922
C         67.91516       54.39882       15.59143
C         66.48680       54.77385       15.27144
O         65.65195       53.89053       15.15973
O         66.11551       56.05103       15.06979
H         68.13679       56.67542       14.02747
H         69.89493       55.08406       15.90625
H         67.92071       53.84018       16.55288
H         68.26101       53.70591       14.79418
N         68.38228       57.80025       16.73566
C         68.30264       58.71073       17.87278
C         66.87761       59.10645       18.21125
O         66.70495       59.84710       19.17014
C         69.16513       59.94442       17.57721
H         68.22244       58.19657       15.79779
H         68.70719       58.22582       18.78770
H         68.77813       60.48229       16.68386
H         69.16595       60.64359       18.43996
H         70.21362       59.63608       17.37635
N         65.80479       58.65228       17.50009
C         64.43196       59.02428       17.82852
C         63.46746       57.85891       17.63738
O         63.87346       56.79525       17.18937
C         64.04833       60.28161       17.02438
C         64.20225       60.10648       15.53891
O         63.51708       59.29906       14.93521
O         65.09730       60.85459       14.86499
H         65.96034       58.07669       16.66183
H         64.36482       59.29332       18.90612
H         64.72690       61.10255       17.34602
H         63.01049       60.59695       17.25893
N         62.15937       57.98798       18.00438
C         61.18213       56.91565       17.87147
C         60.85985       56.60226       16.42848
O         61.39499       57.24540       15.53620
H         61.84619       58.87207       18.43227
H         60.23318       57.22904       18.35762
H         61.55493       56.00684       18.39147
N         59.95800       55.62101       16.12938
C         59.57931       55.28402       14.75928
C         58.09978       55.52686       14.52498
O         57.34942       55.74940       15.46600
C         59.89982       53.80124       14.45585
C         61.36433       53.44123       14.53134
N         61.75377       52.16988       14.28097
O         62.20429       54.28317       14.80801
H         59.51749       55.09852       16.90294
H         60.12628       55.92752       14.03886
H         59.55676       53.55261       13.42843
H         59.34070       53.15801       15.17136
H         61.06036       51.44479       14.04413
H         62.75010       51.90870       14.32170
N         57.62102       55.50771       13.25060
C         56.20545       55.64140       12.93656
C         55.95250       55.75227       11.43853
O         56.89980       55.91450       10.68213
H         58.30268       55.37395       12.48907
H         55.78036       56.54841       13.41852
H         55.69971       54.73806       13.34081
N         54.70688       55.65045       10.89175
C         53.48853       55.34068       11.63364
C         53.08709       53.88071       11.41247
O         52.14446       53.42972       12.04768
C         52.35036       56.30160       11.21347
C         52.71035       57.76466       11.49929
O         52.08333       56.14050        9.84239
H         54.63677       55.70286        9.86229
H         53.65589       55.45360       12.72417
H         51.44166       56.03893       11.80393
H         51.19219       56.54244        9.66945
H         52.90612       57.90842       12.58251
H         53.60926       58.07160       10.92329
H         51.86648       58.42419       11.20370
N         53.76203       53.08024       10.53362
C         53.47145       51.66636       10.31521
C         53.89770       50.87635       11.55559
O         55.01423       51.09464       12.00636
C         54.21694       51.17486        9.03520
C         53.61990       51.90079        7.79472
C         54.10305       49.65006        8.87403
C         54.35055       51.61380        6.48496
H         54.52988       53.48218        9.98124
H         52.39302       51.57091       10.10176
H         55.29841       51.42055        9.13491
H         53.65966       53.00017        7.94196
H         52.54969       51.61770        7.67895
H         54.67821       49.29575        7.99640
H         54.54478       49.14272        9.75302
H         53.04385       49.33519        8.77028
H         53.86975       52.19420        5.66904
H         55.41273       51.92558        6.56588
H         54.29346       50.54268        6.20880
N         53.11167       49.95189       12.19172
C         51.81040       49.46931       11.72909
C         51.75674       47.94639       11.66919
O         52.65725       47.27828       12.15051
C         50.70128       50.02902       12.64328
C         50.87166       49.63985       14.08952
O         50.83261       48.34513       14.45870
O         51.03510       50.50148       14.93863
H         53.47663       49.54658       13.06861
H         51.59991       49.80358       10.70277
H         49.70423       49.68625       12.29523
H         50.71896       51.13752       12.56219
N         50.66755       47.34489       11.10967
C         50.39736       45.91038       11.13455
C         50.18718       45.37424        9.71767
O         49.40191       45.97437        8.99905
C         49.08046       45.72345       11.91926
C         48.65171       44.28153       12.01779
C         47.71276       43.76138       11.10955
C         49.17581       43.44888       13.01853
C         47.31024       42.42702       11.19841
C         48.75984       42.11669       13.11236
C         47.83001       41.60584       12.20171
H         49.94455       47.95106       10.69354
H         51.20153       45.36306       11.66372
H         48.27856       46.30413       11.40994
H         49.16330       46.15377       12.94148
H         47.30094       44.38601       10.32628
H         49.89442       43.83481       13.73073
H         46.59334       42.03147       10.49047
H         49.15687       41.48022       13.89207
H         47.51091       40.57439       12.27361
N         50.74504       44.20294        9.25889
C         51.59759       43.29156       10.00668
C         53.08408       43.56262        9.77082
O         53.89626       42.80196       10.27386
C         51.21756       41.93415        9.39899
C         51.08880       42.28898        7.92635
C         50.31839       43.60406        8.00254
H         51.37691       43.26435       11.09356
H         51.91395       41.09844        9.62605
H         50.20399       41.65230        9.76844
H         52.11022       42.49256        7.53440
H         50.61619       41.51719        7.28207
H         50.51519       44.24312        7.11558
H         49.22837       43.39184        8.08156
N         53.50758       44.60015        8.98929
C         54.90782       44.85105        8.65029
C         55.08785       44.80413        7.13500
O         54.09741       44.68628        6.42710
C         55.28842       46.24541        9.19670
C         55.35688       46.30231       10.73174
C         56.57872       45.62038       11.28856
O         57.49300       46.34200       11.96530
O         56.74810       44.42038       11.14994
H         52.81325       45.24587        8.58849
H         55.55959       44.06079        9.06824
H         54.50685       46.94680        8.83956
H         56.25207       46.62543        8.80336
H         54.44304       45.86434       11.17981
H         55.41305       47.37033       11.03024
N         56.31011       44.87440        6.52593
C         57.59313       44.93471        7.20024
H         58.11236       45.87515        6.92042
H         57.52012       44.88157        8.30168
H         58.21418       44.07417        6.87614
H         56.33860       44.85938        5.49443
Ca        64.04618       56.51323       14.29990
O         61.74785       56.65946       12.06321
H         61.87681       57.49128       11.54225
H         61.44457       55.99193       11.39782
O         64.16908       54.44269       12.02933
H         63.79554       53.52998       11.94327
H         65.14658       54.30640       12.11011
O         64.77581       57.85991       11.60485
H         65.37077       58.48076       12.09566
H         65.33664       57.06218       11.43319

Ca 1.0



