%chk=apoCaM-CA-Ng.loop2.water4.frame228.chk
%nprocshared=20
%mem=10GB
%nosave
#b3lyp/svp scf=(tight,noincore,xqc) Test 
#IOP(5/87=12) Density=Current Pop=(MK,readradii) iop(6/33=2) iop(6/42=6)

apoCaM-CA-Ng.loop2.water4.frame228 

   -2  1 
C         27.44536       23.96174       84.99317
C         26.87807       22.73723       84.33452
O         27.57909       21.73935       84.24777
H         28.33495       24.30654       84.42395
H         26.70596       24.78987       85.01783
H         27.74842       23.72434       86.03364
N         25.62112       22.75752       83.80738
C         25.02883       21.63241       83.08836
C         24.95170       21.95651       81.60732
O         25.35829       23.03909       81.21032
C         23.64143       21.27656       83.68069
C         22.56273       22.32134       83.49599
O         21.32518       22.07452       83.96453
O         22.77787       23.37173       82.91151
H         25.08272       23.63379       83.86699
H         25.67365       20.73131       83.18847
H         23.75739       21.07071       84.76650
H         23.27520       20.34229       83.20491
N         24.44732       21.05726       80.71860
C         24.36728       21.34194       79.29102
C         25.75507       21.55804       78.73066
O         26.60900       20.70042       78.91713
C         23.67338       20.19982       78.54985
H         24.10928       20.14775       81.06825
H         23.74524       22.25161       79.13691
H         24.23460       19.24885       78.66483
H         22.64656       20.06753       78.95292
H         23.59403       20.44999       77.46986
N         26.05468       22.69820       78.04256
C         27.40403       22.99247       77.56893
C         27.91498       21.91130       76.62548
O         27.13130       21.11472       76.12496
C         27.46173       24.35269       76.83776
C         26.88186       25.50278       77.62110
O         27.39590       25.86964       78.80719
O         25.94716       26.13624       77.15840
H         25.30449       23.38778       77.88655
H         28.06216       23.02283       78.46672
H         26.89093       24.26547       75.88621
H         28.51679       24.59314       76.58286
N         29.24572       21.81417       76.36320
C         29.79086       20.78003       75.49912
C         31.29384       20.87668       75.45695
O         31.97121       19.94481       75.86781
H         29.88731       22.47830       76.82458
H         29.38414       20.89392       74.47010
H         29.49377       19.78097       75.88881
N         31.88191       21.99977       74.96460
C         33.32680       22.19995       74.93082
C         33.86202       22.31062       76.34864
O         33.44630       23.20846       77.06958
C         33.65793       23.48279       74.14292
C         33.18406       23.37021       72.71266
N         32.22459       24.19542       72.23165
O         33.66539       22.51481       71.98442
H         31.26443       22.73942       74.59399
H         33.80238       21.34187       74.40387
H         34.75475       23.66111       74.14026
H         33.16905       24.34938       74.64125
H         31.79332       24.91399       72.83102
H         31.89903       24.10552       71.25761
N         34.76211       21.40718       76.83142
C         35.23396       21.43268       78.20880
C         36.14549       22.60279       78.51825
O         36.50374       23.35715       77.62565
H         35.07373       20.63289       76.22527
H         35.81726       20.50904       78.41445
H         34.35444       21.44011       78.88746
N         36.56959       22.78536       79.80367
C         37.52396       23.81822       80.21673
C         36.89192       24.88181       81.10991
O         37.58275       25.83740       81.44789
C         38.73953       23.16005       80.92817
C         38.38479       22.45914       82.25692
O         39.39454       22.26657       80.06255
H         36.19986       22.14711       80.52218
H         37.90122       24.35634       79.32017
H         39.46544       23.96406       81.17946
H         38.81166       21.47079       79.94686
H         37.92354       23.17324       82.96775
H         37.68425       21.61286       82.10441
H         39.30547       22.05620       82.72782
N         35.60188       24.79745       81.53175
C         34.93143       25.79152       82.36522
C         33.76017       26.37371       81.59120
O         33.41921       25.86125       80.52852
C         34.55967       25.09043       83.72474
C         35.79867       25.14829       84.65731
C         33.30997       25.63876       84.43848
C         35.69395       24.28335       85.91322
H         35.03533       23.98111       81.25320
H         35.59223       26.66628       82.56467
H         34.30764       24.03022       83.49405
H         35.97203       26.20584       84.96041
H         36.69678       24.80615       84.10514
H         33.06322       25.02610       85.32847
H         33.44289       26.68811       84.76483
H         32.42760       25.54794       83.77236
H         34.84750       24.58755       86.55975
H         35.58360       23.21617       85.62891
H         36.62440       24.39701       86.50948
N         33.11735       27.48431       82.05255
C         31.95829       28.07154       81.40349
C         32.19116       29.53832       81.00600
O         31.26551       30.16860       80.52225
C         30.75935       27.89976       82.36037
C         29.42258       28.06951       81.70035
O         29.33645       28.29866       80.50455
O         28.30183       27.89653       82.42644
H         33.44222       27.92244       82.92935
H         31.72118       27.50372       80.47623
H         30.86377       28.58721       83.22785
H         30.75589       26.85587       82.73999
N         33.41967       30.13405       81.12134
C         33.67425       31.49974       80.66177
C         33.01236       32.51413       81.58714
O         33.28870       32.46805       82.77555
C         35.19628       31.75080       80.55348
C         35.50270       33.06399       79.86154
C         35.96239       33.06253       78.53170
C         35.32285       34.29605       80.51789
C         36.22022       34.26594       77.86942
C         35.58878       35.49722       79.85313
C         36.03316       35.48234       78.52905
H         34.21708       29.58352       81.46563
H         33.29668       31.57427       79.62087
H         35.59857       30.92373       79.92708
H         35.71132       31.69359       81.53685
H         36.10481       32.13067       77.99870
H         34.98182       34.33282       81.54348
H         36.56155       34.25450       76.84232
H         35.44793       36.44074       80.36428
H         36.23321       36.41293       78.01391
N         32.17181       33.49576       81.12483
C         31.52955       34.49923       81.96715
C         30.68262       33.90568       83.07232
O         30.79040       34.33536       84.21267
C         30.61620       35.25782       80.99040
C         31.40756       35.18714       79.71074
C         31.88290       33.73688       79.72486
H         32.30878       35.18241       82.37537
H         29.68202       34.68165       80.79929
H         30.33033       36.27706       81.32858
H         30.85942       35.48699       78.79280
H         32.29426       35.85175       79.83328
H         31.09493       33.02463       79.39513
H         32.77533       33.67953       79.06705
N         29.79181       32.91683       82.78047
C         28.83721       32.36193       83.73668
C         29.50215       31.65512       84.91900
O         28.78187       31.28022       85.83398
C         27.90670       31.35634       83.02151
C         27.07717       31.96438       81.86600
C         26.38192       30.85963       81.12289
O         25.16688       30.82698       81.02157
O         27.14494       29.88704       80.59044
H         29.77776       32.57227       81.80963
H         28.22294       33.19958       84.13509
H         27.19838       30.90133       83.74886
H         28.56008       30.55121       82.62354
H         27.72557       32.47897       81.12956
H         26.35215       32.70539       82.26618
N         30.84652       31.42383       84.97623
C         31.50403       30.77809       86.09509
H         32.26290       31.46895       86.51996
H         30.79692       30.49946       86.90390
H         32.01626       29.85907       85.74097
H         31.45047       31.70133       84.19673
Ca        26.71284       27.82943       79.73726
O         25.31192       25.80981       81.70770
H         25.49940       25.76062       82.67825
H         26.15756       25.52447       81.28019
O         23.92518       28.28911       78.63315
H         23.74047       27.54823       78.00303
H         23.30472       28.13239       79.38852
O         24.30354       28.48008       82.36710
H         24.98053       28.97633       82.89210
H         23.92499       27.82933       83.00879
O         27.43720       29.06885       77.21278
H         27.90733       29.84127       76.81125
H         27.39471       28.39638       76.48768

Ca 1.0



