%chk=apoCaM-CA-Ng.loop1.water3.frame86.chk
%nprocshared=20
%mem=10GB
%nosave
#b3lyp/svp scf=(tight,noincore,xqc) Test 
#IOP(5/87=12) Density=Current Pop=(MK,readradii) iop(6/33=2) iop(6/42=6)

apoCaM-CA-Ng.loop1.water3.frame86 

   0  1 
C         58.42799       52.13704      119.37954
C         57.11052       51.88755      120.05053
O         56.43148       52.84112      120.40425
H         59.24161       51.67502      119.97773
H         58.42123       51.68889      118.36426
H         58.62621       53.22665      119.29071
N         56.69490       50.60872      120.27028
C         55.44087       50.27344      120.94117
C         55.66717       49.58262      122.28460
O         54.69110       49.37559      122.98400
C         54.52743       49.43905      120.01328
C         55.08923       48.09292      119.62890
O         54.43999       46.96895      119.98702
O         56.10598       48.00770      118.95939
H         57.31462       49.84677      119.95956
H         54.88704       51.20882      121.17707
H         54.31893       50.01576      119.08622
H         53.55886       49.27627      120.53165
N         56.90847       49.20720      122.71170
C         57.21483       48.61854      124.02074
C         57.29870       49.71532      125.08167
O         58.05973       50.64199      124.83334
C         58.64021       47.99125      123.94865
C         58.76870       46.78451      123.00263
C         58.12353       45.51700      123.58725
C         58.37530       44.26725      122.72675
N         57.67544       44.32326      121.44300
H         57.70084       49.34585      122.07104
H         56.48807       47.82498      124.27748
H         58.99865       47.68353      124.95413
H         59.34622       48.77565      123.59264
H         59.85442       46.57386      122.88472
H         58.35991       47.03721      122.00258
H         57.03247       45.65087      123.73820
H         58.59136       45.32873      124.57892
H         58.00952       43.38042      123.28990
H         59.46810       44.13385      122.55999
H         58.02668       45.11331      120.85790
H         57.84684       43.43006      120.92704
H         56.64691       44.42556      121.60305
N         56.66687       49.73566      126.30261
C         55.67427       48.83382      126.90518
C         56.16947       47.40688      127.12673
O         57.15207       47.01763      126.51843
C         54.32640       48.92814      126.15677
C         53.80070       50.34856      126.13855
O         52.67261       50.65964      125.48106
O         54.38836       51.24387      126.72645
H         56.91422       50.53903      126.90393
H         55.49468       49.23567      127.92604
H         53.54745       48.29894      126.61698
H         54.45867       48.54734      125.13561
N         55.60628       46.55994      128.04485
C         54.53099       46.93529      128.96213
C         54.16944       45.84447      129.95832
O         54.73207       44.76067      129.89796
H         56.02829       45.62249      128.12678
H         53.61395       47.18412      128.40311
H         54.87011       47.81188      129.55425
N         53.25347       46.04411      130.95279
C         52.51578       47.28506      131.18430
C         51.01229       47.03767      131.22415
O         50.57211       45.90047      131.11809
C         53.02535       47.93796      132.49114
C         52.88347       47.05268      133.70188
O         51.66733       46.64801      134.11484
O         53.87514       46.70746      134.32468
H         53.09876       45.27068      131.61950
H         52.69537       48.01609      130.37075
H         52.49336       48.89254      132.68494
H         54.10054       48.18753      132.35130
N         50.16187       48.08931      131.40090
C         48.72141       47.96197      131.54960
C         47.96637       47.56741      130.29770
O         46.74765       47.51055      130.38522
H         50.55799       49.03508      131.50423
H         48.31893       48.95442      131.84828
H         48.49648       47.24715      132.37103
N         48.57783       47.28816      129.10906
C         47.83141       46.94645      127.90374
C         48.06601       45.49353      127.57273
O         49.19957       45.09365      127.34416
C         48.22285       47.87095      126.73280
C         47.84063       49.32086      127.04335
O         47.54829       47.46022      125.57099
H         49.60460       47.30188      129.04045
H         46.73950       47.08010      128.06626
H         49.32454       47.79431      126.57198
H         48.02978       47.86041      124.79997
H         48.11246       49.97189      126.18766
H         46.74457       49.40208      127.20847
H         48.36876       49.68048      127.95098
N         47.00123       44.64344      127.54445
C         47.09614       43.22286      127.24527
C         46.29914       42.92466      125.98149
O         45.64135       41.89616      125.90264
C         46.65287       42.39074      128.49597
C         45.19830       42.73574      128.94395
C         47.65874       42.62658      129.63964
C         44.68769       41.91596      130.12918
H         46.06334       45.02906      127.72403
H         48.14729       42.95116      127.00343
H         46.70066       41.31122      128.23086
H         44.50288       42.55967      128.09699
H         45.11896       43.80200      129.23969
H         47.64605       43.68787      129.96882
H         47.43817       41.98028      130.51228
H         48.68578       42.37125      129.30279
H         45.27648       42.12345      131.04580
H         43.63655       42.20588      130.34441
H         44.71975       40.83179      129.89797
N         46.29208       43.83085      124.95785
C         45.52101       43.66437      123.72888
C         46.34488       43.90550      122.46220
O         45.81272       43.66168      121.38807
C         44.29516       44.61538      123.75670
C         44.68518       46.09907      123.82878
O         43.48793       44.31860      124.86689
H         46.79396       44.71727      125.09706
H         45.13431       42.62288      123.67012
H         43.70028       44.48074      122.82299
H         42.98964       43.48842      124.64810
H         45.31717       46.38791      122.96411
H         43.77094       46.72817      123.81605
H         45.23285       46.32333      124.76686
N         47.61300       44.42206      122.49596
C         48.43632       44.74558      121.32864
C         47.79193       45.81091      120.43705
O         46.61045       46.09393      120.57117
C         48.78315       43.47072      120.50601
C         49.39054       42.36943      121.38128
O         49.69839       43.79278      119.48969
H         48.05209       44.62886      123.40136
H         49.38616       45.17604      121.72023
H         47.84482       43.07784      120.05073
H         49.58781       43.11912      118.76863
H         49.62412       41.48170      120.75515
H         50.32583       42.72517      121.86196
H         48.67368       42.05043      122.16681
N         48.53738       46.43281      119.47848
C         47.97440       47.30423      118.44610
C         48.46676       48.73961      118.51834
O         48.03931       49.52991      117.68618
C         48.27176       46.69046      117.05866
C         49.77332       46.66668      116.70909
C         50.03465       45.90622      115.40925
C         51.54084       45.85160      115.11813
N         51.81826       45.02010      113.94937
H         49.54668       46.23996      119.46103
H         46.86815       47.34887      118.55104
H         47.73311       47.26375      116.27174
H         47.87047       45.65311      117.05622
H         50.34474       46.14423      117.49929
H         50.15721       47.70746      116.62546
H         49.50120       46.39100      114.56260
H         49.65326       44.86821      115.52790
H         52.07477       45.42106      115.99530
H         51.92505       46.88225      114.94765
H         51.49568       44.04076      114.12771
H         51.33374       45.40531      113.10706
H         52.84955       45.00682      113.77808
N         49.32497       49.17526      119.48333
C         49.73986       50.56985      119.56102
C         50.61198       50.93999      118.37614
O         51.65282       50.32509      118.18745
C         50.47106       50.84297      120.88410
C         50.76029       52.34070      121.05812
C         51.28680       52.60932      122.42741
O         52.38523       53.11759      122.58180
O         50.52544       52.30676      123.49579
H         49.64994       48.51996      120.20975
H         48.82100       51.19871      119.58164
H         51.41327       50.25665      120.95063
H         49.79904       50.51401      121.70775
H         49.81950       52.92151      120.94433
H         51.48551       52.68498      120.28853
N         50.24905       51.96187      117.55107
C         51.04358       52.40097      116.42156
H         51.97235       51.80551      116.29717
H         50.44234       52.31533      115.49288
H         51.32904       53.46436      116.56723
H         49.37231       52.47157      117.73671
Ca        52.18632       52.87042      125.57729
O         55.04506       52.75126      123.90130
H         55.02477       51.77492      124.05481
H         55.99735       52.94976      123.72114
O         50.01285       51.78086      127.25882
H         50.02925       51.38006      126.35340
H         49.59565       52.66883      127.12677
O         53.14743       53.93564      128.09325
H         53.46870       54.68639      128.65203
H         52.58576       53.39077      128.70004

Ca 1.0



