%chk=apoCaM-CA-Ng.loop1.water2.frame1271.chk
%nprocshared=20
%mem=10GB
%nosave
#b3lyp/svp scf=(tight,noincore,xqc) Test 
#IOP(5/87=12) Density=Current Pop=(MK,readradii) iop(6/33=2) iop(6/42=6)

apoCaM-CA-Ng.loop1.water2.frame1271 

   0  1 
C         74.36428       33.76272       -3.45364
C         74.74024       35.10524       -4.00015
O         74.97044       36.02018       -3.22128
H         73.35120       33.48877       -3.81758
H         75.09682       33.00160       -3.79095
H         74.34697       33.78222       -2.34248
N         74.79414       35.30147       -5.34870
C         75.07683       36.59827       -5.95038
C         73.82840       37.05979       -6.67354
O         73.86718       37.39303       -7.85096
C         76.30404       36.51756       -6.88077
C         77.54352       36.07257       -6.15324
O         78.51807       36.80507       -6.09746
O         77.59845       34.85226       -5.58510
H         74.57776       34.51062       -5.97534
H         75.28868       37.35640       -5.16543
H         76.48288       37.52373       -7.32203
H         76.10494       35.80336       -7.70901
N         72.65211       37.07067       -5.99175
C         71.38468       37.49889       -6.56391
C         71.43701       38.98370       -6.89197
O         71.18286       39.31037       -8.04209
C         70.19793       37.10271       -5.65025
C         70.12220       35.56521       -5.53571
C         69.01210       35.09182       -4.59642
C         68.99322       33.55546       -4.54038
N         67.98077       33.07138       -3.60480
H         72.66251       36.73979       -5.01502
H         71.21033       36.94367       -7.51482
H         69.24835       37.46795       -6.09941
H         70.28757       37.54837       -4.64108
H         71.08094       35.16343       -5.14513
H         69.95455       35.13724       -6.54915
H         68.02777       35.46453       -4.95356
H         69.20428       35.49536       -3.57816
H         69.99076       33.17982       -4.21801
H         68.78136       33.15059       -5.55561
H         67.99061       32.02557       -3.60462
H         68.19688       33.41054       -2.63929
H         67.03283       33.40316       -3.89522
N         71.82637       39.95917       -6.01500
C         72.22961       39.76796       -4.62378
C         73.73844       39.94843       -4.46612
O         74.42998       40.19421       -5.44590
C         71.43464       40.72014       -3.70796
C         71.67685       42.15562       -4.05395
O         72.93532       42.60639       -4.19691
O         70.73782       42.91149       -4.24409
H         71.89787       40.91796       -6.39263
H         72.01958       38.75003       -4.27228
H         71.74344       40.56598       -2.65426
H         70.34592       40.49725       -3.76424
N         74.31771       39.79499       -3.24221
C         75.75112       39.85075       -3.00291
C         76.39107       41.21221       -3.21147
O         75.72392       42.16916       -3.56777
H         73.72136       39.55596       -2.43577
H         76.25694       39.10100       -3.64692
H         75.93293       39.56906       -1.94352
N         77.72496       41.33950       -2.93673
C         78.52264       42.57553       -3.04594
C         79.86887       42.41134       -2.29859
O         80.19629       41.29424       -1.92565
C         78.82506       42.87204       -4.54175
C         77.62230       43.20582       -5.36973
O         77.32832       42.50976       -6.32825
O         76.88745       44.29891       -5.08637
H         78.17426       40.48545       -2.57915
H         77.97043       43.39723       -2.54454
H         79.34210       41.98651       -4.97468
H         79.50820       43.72368       -4.66266
N         80.74458       43.43282       -2.02745
C         80.56026       44.85355       -2.27167
C         79.53022       45.44962       -1.35209
O         79.71872       45.40625       -0.14402
H         81.63793       43.17374       -1.57844
H         80.34967       45.06249       -3.33113
H         81.51257       45.38140       -2.04541
N         78.41499       46.03596       -1.85953
C         77.39224       46.67221       -1.04154
C         76.16816       45.79026       -1.03927
O         75.75637       45.34074       -2.09846
C         77.07949       48.08921       -1.56781
C         78.30061       49.00698       -1.46579
O         76.03990       48.65271       -0.80442
H         78.26300       46.00491       -2.88043
H         77.73088       46.78567        0.01273
H         76.78849       48.02223       -2.64290
H         75.27382       48.82096       -1.41338
H         79.14550       48.61104       -2.06699
H         78.04321       50.01890       -1.84456
H         78.62455       49.10023       -0.40628
N         75.55517       45.49637        0.14609
C         74.43645       44.57987        0.34362
C         73.25162       44.96159       -0.52446
O         73.31879       44.72541       -1.71272
C         74.87700       43.09922        0.09767
C         76.13327       42.76426        0.94813
C         73.71487       42.13367        0.40891
C         76.69058       41.35846        0.71834
H         75.91616       45.94973        0.99998
H         74.13712       44.66523        1.41260
H         75.15051       42.97831       -0.97348
H         75.90679       42.89120        2.02853
H         76.94991       43.46883        0.67934
H         72.82627       42.36708       -0.21338
H         73.98822       41.08564        0.17445
H         73.42834       42.20435        1.47991
H         75.97457       40.57663        1.04046
H         76.94131       41.21522       -0.35045
H         77.61849       41.22906        1.31426
N         72.11686       45.51212       -0.00867
C         70.94482       45.79468       -0.84307
C         70.59316       47.27841       -0.92487
O         69.63206       47.59092       -1.61786
C         69.74187       44.93268       -0.38438
C         69.28700       45.22730        1.04724
O         70.07194       43.57031       -0.47845
H         72.07740       45.71509        0.99983
H         71.13804       45.48909       -1.88871
H         68.86964       45.14249       -1.04856
H         70.01622       43.32452       -1.43946
H         70.08391       44.98357        1.77931
H         69.00157       46.29414        1.15625
H         68.40266       44.60010        1.28854
N         71.29461       48.25244       -0.27387
C         70.90170       49.66212       -0.33503
C         71.07151       50.22018       -1.74772
O         72.19895       50.32516       -2.21154
C         71.71947       50.49885        0.68066
C         71.26568       51.96351        0.71816
O         71.56153       49.94379        1.96210
H         72.09530       47.98499        0.31845
H         69.83317       49.72302       -0.02695
H         72.79456       50.45499        0.38092
H         72.37774       50.17128        2.48018
H         71.87468       52.52470        1.45813
H         71.39520       52.44807       -0.27215
H         70.19711       52.02750        1.01537
N         69.98147       50.58766       -2.48833
C         70.04055       51.15623       -3.83822
C         70.87249       50.29064       -4.76146
O         71.82875       50.75169       -5.37073
C         70.49887       52.62605       -3.80921
C         69.44720       53.50198       -3.11290
C         69.84520       54.98188       -3.14744
C         68.78538       55.90247       -2.51655
N         67.53036       55.91589       -3.27452
H         69.04385       50.42420       -2.09101
H         69.01153       51.15218       -4.26423
H         70.58714       52.98830       -4.85813
H         71.49121       52.71948       -3.31764
H         69.31326       53.17732       -2.05805
H         68.48774       53.36536       -3.65412
H         70.02142       55.30538       -4.19689
H         70.79547       55.09870       -2.58266
H         69.19775       56.93520       -2.50228
H         68.59006       55.59590       -1.46528
H         67.71143       56.18544       -4.26903
H         67.05626       54.98642       -3.23806
H         66.88538       56.62074       -2.85024
N         70.54375       48.98404       -4.87929
C         71.29900       48.02287       -5.66728
C         71.15401       46.62659       -5.04221
O         71.98676       46.63373       -3.92913
C         70.96744       48.10846       -7.16802
C         71.68679       47.02132       -7.99672
C         73.18384       47.06071       -7.84701
O         73.83904       45.99263       -7.35170
O         73.81171       48.05503       -8.17301
H         69.76006       48.65373       -4.29740
H         72.38613       48.25805       -5.58664
H         71.26641       49.11210       -7.54031
H         69.87765       48.02031       -7.33204
H         71.43096       47.15152       -9.06901
H         71.32118       46.01938       -7.68277
N         69.77930       46.29418       -4.62652
C         69.01405       45.62641       -5.67404
H         67.98373       45.44441       -5.29887
H         68.91868       46.25619       -6.57275
H         69.47444       44.65235       -5.94111
H         69.81610       45.62598       -3.82182
Ca        73.18885       44.79280       -4.28282
O         74.24939       42.88859       -7.08838
H         74.98266       43.21895       -7.66554
H         74.68240       42.71809       -6.21538
O         75.06198       47.35971       -4.61359
H         75.07952       47.97286       -5.39051
H         74.59119       47.86899       -3.90676

Ca 1.0



