%chk=apoCaM-CA-Ng.loop4.water8.frame1050.chk
%nprocshared=20
%mem=10GB
%nosave
#b3lyp/svp scf=(tight,noincore,xqc) Test 
#IOP(5/87=12) Density=Current Pop=(MK,readradii) iop(6/33=2) iop(6/42=6)

apoCaM-CA-Ng.loop4.water8.frame1050 

   -3  1 
C         51.32600       83.19935       62.25911
C         52.22824       82.98870       61.07548
O         52.00066       82.04409       60.33414
H         50.53388       82.41985       62.28850
H         51.90881       83.14202       63.20108
H         50.83311       84.19148       62.17897
N         53.26873       83.81995       60.78343
C         53.66470       84.98413       61.57059
C         53.42865       86.27935       60.80673
O         53.74654       87.33180       61.34541
C         55.16041       84.87257       61.93177
C         55.46387       83.62401       62.70881
O         56.25135       82.80301       62.26588
O         54.88045       83.41064       63.90335
H         53.81261       83.61937       59.93169
H         53.07844       85.05552       62.50989
H         55.46694       85.74622       62.54750
H         55.76429       84.88318       60.99615
N         52.86632       86.29860       59.56039
C         52.64832       87.54172       58.82245
C         53.95079       88.25655       58.47049
O         53.86664       89.41586       58.09071
C         51.79872       87.32668       57.52929
C         52.49615       86.35537       56.53776
C         50.37863       86.85717       57.89868
C         51.79709       86.23556       55.18432
H         52.55362       85.41445       59.14402
H         52.07630       88.22375       59.49219
H         51.69210       88.31630       57.03093
H         52.55977       85.34578       56.98040
H         53.52918       86.71002       56.33597
H         49.72858       86.80181       57.00296
H         50.39277       85.86163       58.38881
H         49.90826       87.58677       58.59195
H         51.74718       87.22811       54.68993
H         52.37699       85.54434       54.53584
H         50.77580       85.81787       55.28762
N         55.17698       87.65271       58.56666
C         56.42940       88.35343       58.25908
C         57.65110       87.50422       58.61684
O         57.51996       86.30578       58.82945
C         56.47372       88.73558       56.75215
C         57.58490       89.68553       56.40555
O         58.41353       89.38924       55.56047
O         57.63895       90.89637       56.99226
H         55.21372       86.67868       58.89314
H         56.44718       89.26176       58.90135
H         55.54641       89.25274       56.44615
H         56.54376       87.80604       56.14324
N         58.88878       88.07162       58.72311
C         60.07291       87.28320       59.02815
C         60.49182       86.38699       57.87619
O         61.36453       85.55561       58.08026
H         58.99404       89.09136       58.62164
H         59.87193       86.67908       59.94001
H         60.93100       87.95354       59.25153
N         59.96586       86.54268       56.62491
C         60.34441       85.74714       55.46415
C         59.07320       85.20568       54.82063
O         58.24794       86.02781       54.44474
C         61.07982       86.63377       54.44237
C         62.32895       87.23234       55.02574
O         63.31689       86.43495       55.47514
O         62.45484       88.44472       55.09174
H         59.28581       87.29274       56.46195
H         61.05071       84.95712       55.76382
H         60.40730       87.45223       54.10033
H         61.36123       86.02113       53.55832
N         58.77486       83.88592       54.64697
C         59.59089       82.73996       55.00498
C         59.79211       81.82557       53.80757
O         59.32902       82.17014       52.72848
H         57.85345       83.66569       54.23524
H         59.02147       82.20425       55.78286
H         60.56650       83.01035       55.41948
N         60.42693       80.61330       53.87748
C         61.05937       80.00437       55.04869
C         60.07621       79.98077       56.20088
O         60.33994       80.56032       57.24719
C         62.40078       80.68875       55.42273
C         63.37234       80.86471       54.23890
C         62.96671       82.00900       53.33734
N         62.69584       81.81098       52.02670
O         62.88912       83.13718       53.80245
H         60.43772       80.04428       53.01564
H         61.31626       78.95521       54.77611
H         62.88546       80.03012       56.17683
H         62.25572       81.67467       55.90657
H         63.46421       79.90710       53.68114
H         64.37515       81.12155       54.64142
H         62.75264       80.87211       51.60815
H         62.42060       82.60495       51.42847
N         58.84852       79.43207       56.00627
C         57.70722       79.70739       56.87304
C         56.66115       80.45612       56.04452
O         56.88305       80.68735       54.86181
C         57.17441       78.41593       57.55638
C         58.21979       77.85207       58.52896
C         56.75068       77.33338       56.56052
H         58.67465       78.91555       55.12905
H         57.99139       80.40451       57.69248
H         56.28489       78.68337       58.16670
H         59.14197       77.54690       57.99096
H         58.48595       78.61782       59.28936
H         57.80940       76.96967       59.06532
H         56.32113       76.46338       57.10255
H         55.97623       77.73412       55.88722
H         57.61088       76.97888       55.95582
N         55.49469       80.87757       56.60033
C         54.47351       81.61491       55.85910
C         53.26166       80.74090       55.57621
O         52.28108       81.24633       55.04996
C         54.03389       82.83360       56.69205
C         55.16054       83.79160       56.97752
N         55.76760       84.46438       55.97636
O         55.51572       83.98034       58.13028
H         55.29890       80.64028       57.58528
H         54.85079       81.96205       54.87201
H         53.60711       82.46847       57.65338
H         53.23644       83.38216       56.15078
H         55.47478       84.33537       54.99737
H         56.52313       85.13062       56.18965
N         53.25755       79.41691       55.89669
C         52.06517       78.58501       55.81740
C         52.05027       77.59842       56.97248
O         53.01835       77.52394       57.71669
C         51.91750       77.90005       54.44123
C         53.02106       76.92047       54.11069
C         52.74524       75.54285       54.06170
C         54.32359       77.36512       53.82776
C         53.75567       74.62773       53.75331
C         55.33221       76.44772       53.51321
C         55.05162       75.07472       53.47954
O         56.01491       74.17864       53.18414
H         54.10291       79.00463       56.30519
H         51.17461       79.23382       55.97318
H         51.85511       78.66214       53.63452
H         50.94233       77.36760       54.44598
H         51.74893       75.17346       54.27049
H         54.56228       78.42066       53.84194
H         53.52967       73.56918       53.72686
H         56.33148       76.80586       53.29835
H         56.92476       74.44541       52.98986
N         50.94508       76.84205       57.21910
C         50.85916       75.97359       58.38131
C         49.79996       76.55234       59.28975
O         48.62665       76.51054       58.94723
C         50.60347       74.52754       57.92944
C         50.70261       73.52510       59.08474
C         50.56478       72.11758       58.57807
O         51.36080       71.67641       57.76323
O         49.57256       71.32918       59.03145
H         50.12144       76.93159       56.60566
H         51.82534       75.97374       58.92960
H         51.39039       74.27151       57.18478
H         49.61404       74.44903       57.42634
H         49.91245       73.73632       59.83634
H         51.69565       73.62076       59.57585
N         50.17209       77.22713       60.41821
C         49.22483       77.95101       61.25729
C         48.49610       78.99127       60.42105
O         47.27586       78.94370       60.34454
C         49.96252       78.63203       62.44396
C         49.00836       79.32976       63.43736
C         48.13015       78.37760       64.21546
O         48.26136       77.16790       64.11367
O         47.19444       78.86069       65.05426
H         51.17440       77.27124       60.65854
H         48.49322       77.21969       61.65933
H         50.66961       79.39062       62.04165
H         50.56778       77.88320       63.00007
H         48.37718       80.05532       62.88600
H         49.60969       79.90376       64.17524
N         49.19008       79.94698       59.74208
C         48.53464       80.93259       58.91059
H         47.84588       81.55167       59.52308
H         49.29191       81.59723       58.44220
H         47.96239       80.42644       58.10372
H         50.21918       79.96708       59.79973
Ca        46.73747       81.06540       65.20920
O         45.63031       79.70843       68.16368
H         44.78230       79.46798       68.61474
H         45.81776       78.94237       67.56524
O         45.92876       83.18510       67.69843
H         45.10691       83.59057       68.07340
H         46.36801       82.75376       68.47387
O         44.09573       79.30731       64.81960
H         43.14753       79.56413       64.69641
H         44.23511       78.55784       64.18774
O         45.93908       81.96506       62.33004
H         46.40544       82.82876       62.45918
H         46.62188       81.37419       61.92536
O         43.30184       81.66167       66.82668
H         42.49069       81.91238       66.31739
H         42.99507       80.95719       67.45079
O         44.43731       83.62481       64.64494
H         43.69152       83.63312       63.99365
H         44.96483       84.43419       64.42857
O         47.79951       83.77633       64.92634
H         48.49513       84.10634       65.54833
H         47.75641       84.45838       64.21035
O         48.65898       81.25563       67.46375
H         48.71205       80.41224       67.97951
H         49.54819       81.34558       67.03793

Ca 1.0



