%chk=apoCaM-CA-Ng.loop1.water3.frame1198.chk
%nprocshared=20
%mem=10GB
%nosave
#b3lyp/svp scf=(tight,noincore,xqc) Test 
#IOP(5/87=12) Density=Current Pop=(MK,readradii) iop(6/33=2) iop(6/42=6)

apoCaM-CA-Ng.loop1.water3.frame1198 

   0  1 
C         29.08445       -4.79737       98.55843
C         28.34839       -4.17352       99.70638
O         27.14276       -3.99912       99.59688
H         30.15698       -4.95152       98.79799
H         28.62916       -5.78447       98.33053
H         29.00584       -4.14714       97.66203
N         29.01055       -3.79564      100.83915
C         28.33374       -3.21750      101.99477
C         28.67036       -1.74757      102.12847
O         29.13084       -1.30187      103.17112
C         28.59154       -4.04199      103.27864
C         30.03087       -4.08265      103.72702
O         30.88721       -4.60725      103.03419
O         30.37323       -3.57031      104.92475
H         30.03433       -3.90174      100.86708
H         27.23505       -3.24148      101.83885
H         28.23546       -5.08270      103.12348
H         27.98155       -3.59724      104.09608
N         28.38562       -0.91616      101.08926
C         28.50028        0.53390      101.17532
C         27.57035        1.05281      102.26965
O         28.07017        1.71962      103.16430
C         28.22146        1.24425       99.81963
C         29.03936        0.70224       98.62872
C         30.55983        0.77266       98.83736
C         31.34947        0.13319       97.68273
N         31.12474        0.80406       96.40197
H         28.02675       -1.34145      100.22339
H         29.54612        0.79131      101.45059
H         28.43586        2.32869       99.94452
H         27.15753        1.16803       99.52865
H         28.75844        1.30142       97.73709
H         28.75114       -0.34849       98.42228
H         30.83595        0.20197       99.74766
H         30.86994        1.83099       98.97511
H         31.07657       -0.94249       97.59282
H         32.43131        0.18946       97.93545
H         31.34114        1.82353       96.48469
H         31.75648        0.37948       95.68529
H         30.13967        0.66856       96.08179
N         26.22978        0.76997      102.33999
C         25.47267       -0.04747      101.39105
C         24.99520       -1.34760      102.01756
O         25.15994       -1.56751      103.20959
C         24.33384        0.77679      100.76380
C         23.41384        1.36635      101.78805
O         22.69241        0.57611      102.60524
O         23.33246        2.57830      101.88829
H         25.71258        1.14236      103.15238
H         26.09801       -0.37096      100.55354
H         23.74602        0.16158      100.05107
H         24.79263        1.60750      100.18343
N         24.45906       -2.29893      101.20480
C         24.06312       -3.63090      101.62504
C         22.87370       -3.63686      102.59266
O         21.92690       -2.72669      102.13355
H         24.37433       -2.09071      100.19806
H         24.92388       -4.17320      102.07159
H         23.75348       -4.18416      100.70965
N         22.31384       -5.00063      102.62436
C         21.09016       -5.28335      103.42236
C         20.48849       -6.59769      102.88114
O         21.16356       -7.24328      102.08919
C         21.45708       -5.48599      104.92604
C         21.95595       -4.26227      105.64650
O         21.16143       -3.18987      105.82577
O         23.08603       -4.24674      106.10581
H         23.06833       -5.68885      102.85943
H         20.34305       -4.47524      103.27327
H         22.23092       -6.28363      104.98569
H         20.59995       -5.84467      105.51274
N         19.27263       -7.12636      103.23491
C         18.22977       -6.51091      104.03992
C         17.48188       -5.47248      103.24901
O         16.92289       -5.81045      102.21525
H         19.04500       -8.06235      102.86205
H         18.60965       -6.13376      105.00103
H         17.47488       -7.28747      104.29322
N         17.43012       -4.18355      103.67518
C         16.74281       -3.12342      102.94500
C         17.78475       -2.26348      102.28271
O         18.82628       -2.04659      102.87460
C         15.81258       -2.31848      103.88376
C         15.10305       -1.17685      103.13249
O         16.54558       -1.79819      104.96182
H         17.95936       -3.92774      104.52344
H         16.10436       -3.54781      102.13899
H         15.04503       -3.02636      104.27228
H         15.88749       -1.44258      105.61491
H         14.40473       -0.64605      103.81259
H         15.83535       -0.43353      102.75048
H         14.52292       -1.57878      102.27532
N         17.57290       -1.77279      101.02548
C         18.55511       -1.02520      100.24922
C         18.98127        0.23208      100.98779
O         19.76227        0.15293      101.92696
C         19.74418       -1.95217       99.86129
C         19.24693       -3.11639       98.96769
C         20.89907       -1.18169       99.18830
C         20.26366       -4.25161       98.83084
H         16.66266       -1.95085      100.57608
H         18.06369       -0.70905       99.30172
H         20.12016       -2.38901      100.79276
H         18.96732       -2.72571       97.96475
H         18.34272       -3.57696       99.41907
H         21.29031       -0.39064       99.86076
H         21.75786       -1.84903       98.97478
H         20.55925       -0.70953       98.24360
H         20.48735       -4.67869       99.83296
H         19.83012       -5.05514       98.19887
H         21.20626       -3.91544       98.35757
N         18.51476        1.44407      100.58644
C         18.94499        2.70103      101.17844
C         17.82156        3.45911      101.85488
O         18.12312        4.50744      102.40310
C         19.62209        3.58798      100.10425
C         18.69629        3.93316       98.93027
O         20.75811        2.93713       99.60133
H         17.83133        1.47171       99.81548
H         19.69828        2.51821      101.97858
H         19.92432        4.55699      100.57009
H         21.49669        3.13034      100.23377
H         18.41117        3.02440       98.36150
H         17.77562        4.44116       99.28698
H         19.22391        4.61153       98.22888
N         16.51825        3.03023      101.87248
C         15.49385        3.81878      102.55324
C         15.84408        3.83379      104.03356
O         15.72324        2.80100      104.67530
C         14.07084        3.26452      102.27635
C         12.98246        4.19823      102.82016
O         13.89251        3.13696      100.88799
H         16.25155        2.15889      101.39509
H         15.53631        4.84540      102.12456
H         13.98269        2.26015      102.75532
H         13.18327        2.45541      100.74705
H         13.07530        4.32812      103.91758
H         13.05351        5.19301      102.32817
H         11.97886        3.77508      102.59771
N         16.41247        4.94604      104.59330
C         16.98509        5.01344      105.93821
C         18.15283        4.04916      106.11835
O         17.99463        2.84891      105.95260
C         15.92963        4.82639      107.03826
C         14.92472        5.98272      107.00332
C         13.88923        5.86564      108.12023
C         12.93859        7.06833      108.08256
N         11.89994        6.94812      109.10232
H         16.50580        5.79090      104.00966
H         17.39456        6.03917      106.07905
H         16.44448        4.85147      108.02539
H         15.41651        3.84682      106.94324
H         14.40456        5.99672      106.02102
H         15.47811        6.94107      107.12860
H         14.40053        5.83483      109.10838
H         13.31407        4.92456      107.98329
H         12.45899        7.13248      107.08062
H         13.51881        8.00365      108.25365
H         12.33120        6.89929      110.05372
H         11.27668        7.78601      109.05203
H         11.32847        6.08996      108.92642
N         19.36145        4.52509      106.53129
C         20.51859        3.67165      106.77859
C         21.07344        3.09129      105.48780
O         21.15545        1.87455      105.41379
C         21.62141        4.41099      107.56902
C         21.12646        4.81750      108.96672
C         22.18938        5.55751      109.72245
O         23.25742        5.02161      109.97156
O         21.96358        6.81881      110.13694
H         19.44276        5.53249      106.73407
H         20.20450        2.82689      107.43522
H         21.97665        5.30975      107.02944
H         22.48952        3.72551      107.69466
H         20.83723        3.90977      109.54045
H         20.23432        5.47243      108.88170
N         21.50929        3.82918      104.42423
C         21.49354        5.27140      104.29209
H         21.03392        5.79397      105.14213
H         22.53523        5.63823      104.17414
H         20.91660        5.54514      103.38454
H         21.88584        3.31509      103.61987
Ca        21.27277       -1.84694      104.07940
O         20.35690       -0.51162      107.12774
H         19.65900        0.15631      107.34418
H         20.26694       -1.20324      107.83029
O         23.43802       -0.78046      106.15540
H         23.04861       -1.44900      106.77296
H         24.40783       -0.97870      106.15819
O         18.58993        0.22949      104.68461
H         17.80787        0.22496      104.08049
H         19.12542        0.99164      104.35807

Ca 1.0



