%chk=apoCaM-CA-Ng.loop2.water5.frame407.chk
%nprocshared=20
%mem=10GB
%nosave
#b3lyp/svp scf=(tight,noincore,xqc) Test 
#IOP(5/87=12) Density=Current Pop=(MK,readradii) iop(6/33=2) iop(6/42=6)

apoCaM-CA-Ng.loop2.water5.frame407 

   -2  1 
C         79.50098       84.57066       -5.16702
C         78.05948       84.26486       -5.45347
O         77.58029       84.58721       -6.53133
H         79.97545       85.08785       -6.02792
H         79.57966       85.22266       -4.27386
H         80.04938       83.62511       -4.97169
N         77.30476       83.62062       -4.52131
C         75.90817       83.25981       -4.73928
C         75.06047       84.50631       -4.90994
O         75.01095       85.31436       -3.99167
C         75.38734       82.42989       -3.53979
C         73.97658       81.91521       -3.69673
O         73.42937       81.18787       -2.70486
O         73.32385       82.13602       -4.70503
H         77.75731       83.35576       -3.63175
H         75.84971       82.61751       -5.64627
H         75.43750       83.04717       -2.61558
H         76.04868       81.54776       -3.40102
N         74.33182       84.71050       -6.04759
C         73.43696       85.85487       -6.18904
C         74.19327       87.17151       -6.15746
O         75.41074       87.17974       -6.28069
C         72.59778       85.74562       -7.46559
H         74.37209       84.00463       -6.79915
H         72.73926       85.83048       -5.32159
H         73.25116       85.75156       -8.36382
H         72.01709       84.79785       -7.45202
H         71.87887       86.58959       -7.53426
N         73.51636       88.32293       -5.88702
C         74.17497       89.60353       -5.64737
C         73.53601       90.76356       -6.40382
O         73.91977       91.89573       -6.14187
C         74.21559       89.86557       -4.12323
C         72.88366       90.01972       -3.43302
O         72.85961       90.21835       -2.10175
O         71.83105       89.97532       -4.04933
H         72.50236       88.25367       -5.71414
H         75.24207       89.56136       -5.96000
H         74.81041       90.78450       -3.93026
H         74.75381       89.01610       -3.64733
N         72.58081       90.58082       -7.36507
C         71.93508       91.68720       -8.06353
C         72.86135       92.55560       -8.90548
O         72.36943       93.52394       -9.46700
H         72.26774       89.62897       -7.60331
H         71.43312       92.33116       -7.30922
H         71.15060       91.28080       -8.73870
N         74.19415       92.29413       -9.03885
C         75.12278       93.13440       -9.78750
C         75.77526       92.32117      -10.88704
O         75.71321       92.72802      -12.03948
C         76.19680       93.70557       -8.84105
C         75.60020       94.57044       -7.75589
N         74.91144       95.69631       -8.06019
O         75.75281       94.25577       -6.58526
H         74.59103       91.46895       -8.57657
H         74.60021       93.99691      -10.25838
H         76.91324       94.32522       -9.42351
H         76.76364       92.86904       -8.37578
H         74.78000       95.99141       -9.03832
H         74.51173       96.28265       -7.31202
N         76.39310       91.13616      -10.60865
C         76.99917       90.30624      -11.63246
C         78.34607       90.82920      -12.06259
O         78.82763       91.81277      -11.51646
H         76.38686       90.77039       -9.64610
H         76.30322       90.20488      -12.49378
H         77.17791       89.29093      -11.21821
N         79.02695       90.18163      -13.04870
C         80.36203       90.59305      -13.47640
C         81.41632       90.34357      -12.39475
O         82.49572       90.91235      -12.50364
C         80.76866       89.93955      -14.82870
C         80.83569       88.40155      -14.81011
O         79.91434       90.37361      -15.85917
H         78.55698       89.39360      -13.51535
H         80.32229       91.69072      -13.66073
H         81.78746       90.30530      -15.08463
H         79.03001       89.94023      -15.73313
H         81.54680       88.04491      -14.04980
H         79.84819       87.94406      -14.59969
H         81.17869       88.03230      -15.79943
N         81.19858       89.49131      -11.34762
C         82.16015       89.24091      -10.26878
C         81.51105       89.57730       -8.92394
O         80.31022       89.82057       -8.86807
C         82.67778       87.75845      -10.39353
C         83.58996       87.65670      -11.64785
C         83.43881       87.23066       -9.16133
C         84.03641       86.23753      -12.00849
H         80.31164       88.96392      -11.31267
H         83.03239       89.92724      -10.35669
H         81.78906       87.09916      -10.51701
H         84.49320       88.28999      -11.50417
H         83.05285       88.05135      -12.52324
H         83.72477       86.16864       -9.28921
H         84.35955       87.82246       -8.97507
H         82.78609       87.23156       -8.26707
H         83.15304       85.58786      -12.18041
H         84.63906       86.27230      -12.94085
H         84.67999       85.79446      -11.22304
N         82.27352       89.64471       -7.79560
C         81.77197       89.92586       -6.45692
C         82.46500       91.16976       -5.87156
O         82.28090       91.46231       -4.70060
C         82.01726       88.65378       -5.60912
C         81.34271       88.62204       -4.26106
O         81.50116       87.53793       -3.47887
O         80.62224       89.53200       -3.88213
H         83.28796       89.47720       -7.87572
H         80.67342       90.10270       -6.47763
H         83.11013       88.50000       -5.48472
H         81.60674       87.78212       -6.16539
N         83.23825       91.98493       -6.65358
C         83.88949       93.19783       -6.16535
C         85.08725       92.86302       -5.28135
O         85.91407       92.06835       -5.70600
C         84.32478       94.07188       -7.36966
C         84.93523       95.39325       -6.94717
C         84.19912       96.58615       -7.06447
C         86.24320       95.44967       -6.42957
C         84.75443       97.80291       -6.65414
C         86.79512       96.66736       -6.02562
C         86.05038       97.84290       -6.13393
H         83.31917       91.78350       -7.65933
H         83.13188       93.80584       -5.62817
H         83.39806       94.27388       -7.95232
H         85.02577       93.53649       -8.04591
H         83.19017       96.57494       -7.45743
H         86.84229       94.55393       -6.34094
H         84.17864       98.71550       -6.73660
H         87.80091       96.69765       -5.62705
H         86.47884       98.78468       -5.81651
N         85.31067       93.49909       -4.08565
C         86.50328       93.32613       -3.26160
C         86.78933       91.89641       -2.86708
O         87.93781       91.47998       -2.92152
C         86.18693       94.14386       -2.00236
C         85.37854       95.27933       -2.57285
C         84.45886       94.54075       -3.53907
H         87.37630       93.77084       -3.79233
H         85.49926       93.57469       -1.33497
H         87.08293       94.44175       -1.41627
H         84.85544       95.91856       -1.83097
H         86.07559       95.91777       -3.16475
H         83.59691       94.06194       -3.02494
H         84.11212       95.28248       -4.28740
N         85.77613       91.09572       -2.44056
C         85.96257       89.74121       -1.93175
C         86.71111       88.87786       -2.92762
O         87.77206       88.37665       -2.58015
C         84.59749       89.10423       -1.59041
C         83.87716       89.84318       -0.44926
C         82.50949       89.27231       -0.22995
O         82.35618       87.97842        0.11027
O         81.52695       89.98406       -0.36277
H         84.82330       91.48505       -2.48279
H         86.56819       89.78887       -0.99767
H         84.74952       88.04734       -1.27756
H         83.95848       89.11093       -2.50152
H         83.76238       90.92155       -0.68253
H         84.46973       89.75837        0.48651
N         86.22895       88.67035       -4.18382
C         86.91520       87.85937       -5.17044
H         87.86447       87.42986       -4.78402
H         86.25716       87.02156       -5.48041
H         87.15365       88.48234       -6.05718
H         85.34010       89.11074       -4.46203
Ca        79.41548       88.22260       -1.33846
O         77.61911       86.57496        0.36244
H         76.82392       86.09214        0.01596
H         77.26071       87.44400        0.67963
O         80.07035       85.23191       -1.41257
H         80.65201       84.52064       -1.78300
H         79.15916       84.99264       -1.71809
O         79.52556       89.42379        1.66618
H         79.76575       88.46908        1.78770
H         78.54008       89.44723        1.76575
O         77.81111       87.08241       -3.55330
H         77.46535       87.39603       -4.42597
H         77.00407       86.93680       -2.99933
O         77.49120       90.54000       -1.54303
H         77.80952       91.27418       -2.12835
H         77.45139       90.94383       -0.63812

Ca 1.0



