%chk=apoCaM-CA-Ng.loop4.water3.frame437.chk
%nprocshared=20
%mem=10GB
%nosave
#b3lyp/svp scf=(tight,noincore,xqc) Test 
#IOP(5/87=12) Density=Current Pop=(MK,readradii) iop(6/33=2) iop(6/42=6)

apoCaM-CA-Ng.loop4.water3.frame437 

   -3  1 
C         88.65868       70.62778       82.98812
C         87.79899       69.68666       83.77665
O         88.07774       68.49805       83.77605
H         89.48060       70.07647       82.48037
H         88.04348       71.13645       82.21734
H         89.10531       71.38482       83.66536
N         86.74007       70.15970       84.49809
C         85.85018       69.32038       85.29664
C         86.63884       68.55337       86.34903
O         86.72607       67.33735       86.30877
C         84.83120       68.54445       84.41992
C         85.37092       67.64756       83.34738
O         86.03738       66.53017       83.66953
O         85.14853       67.89790       82.17239
H         86.57091       71.17700       84.50603
H         85.17660       69.98597       85.88271
H         84.20626       69.31596       83.91601
H         84.15498       67.95128       85.07277
N         87.21606       69.27594       87.35414
C         88.01023       68.78906       88.48157
C         87.21431       67.84567       89.37647
O         86.72297       68.30120       90.40031
C         89.40619       68.25163       88.05085
C         90.29510       67.84989       89.26252
C         90.13379       69.27780       87.16186
C         90.59466       68.97818       90.26009
H         87.06425       70.29706       87.33281
H         88.20522       69.69873       89.09246
H         89.27018       67.34326       87.42812
H         91.26353       67.46346       88.87729
H         89.80848       67.02212       89.82033
H         91.12294       68.88266       86.84786
H         89.54837       69.47829       86.24049
H         90.27922       70.24266       87.68984
H         91.25472       68.59181       91.06458
H         91.11680       69.82538       89.77121
H         89.66666       69.34673       90.74311
N         87.07763       66.51856       89.08837
C         86.26396       65.60851       89.88481
C         87.08196       64.85544       90.94798
O         86.71780       65.01744       92.10524
C         85.38862       64.73201       88.97193
C         84.43880       65.56288       88.15007
O         83.52873       66.34934       88.75590
O         84.47770       65.51840       86.93091
H         87.54993       66.13376       88.26181
H         85.52741       66.20264       90.47531
H         84.78633       64.03425       89.59320
H         86.01860       64.15472       88.27857
N         88.19059       64.07015       90.75312
C         88.87175       63.76495       89.50791
C         88.15541       62.71866       88.67383
O         87.10732       62.24677       89.09051
H         88.64758       63.70214       91.60347
H         89.85993       63.32258       89.76032
H         89.07607       64.70588       88.97466
N         88.66404       62.23847       87.49681
C         89.97376       62.59513       86.94732
C         90.09349       64.08429       86.64461
O         89.07259       64.74440       86.51963
C         90.30393       61.71134       85.71474
C         89.33669       61.87500       84.57695
O         88.58205       60.83419       84.17753
O         89.25544       62.93616       83.98540
H         88.10854       61.52065       87.00549
H         90.71036       62.35025       87.74236
H         90.28286       60.65100       86.04644
H         91.31813       61.91082       85.31865
N         91.29415       64.73391       86.62392
C         92.59395       64.10147       86.77624
C         93.16460       64.34588       88.14101
O         92.51204       64.95519       88.97833
H         91.28867       65.76276       86.54577
H         93.27330       64.48979       85.98761
H         92.55574       63.00741       86.66789
N         94.40605       63.86874       88.43217
C         95.03291       64.03262       89.73543
C         96.07692       65.13799       89.70805
O         96.55380       65.50250       90.77422
C         95.47955       62.66407       90.30451
C         96.52980       61.88243       89.49114
C         97.88311       62.53003       89.51436
N         98.53257       62.70380       90.68936
O         98.40862       62.87596       88.46784
H         94.93910       63.40909       87.67897
H         94.27528       64.41290       90.45597
H         94.56996       62.02585       90.35340
H         95.83475       62.79485       91.34885
H         96.18034       61.73210       88.44845
H         96.64437       60.87294       89.94182
H         98.11188       62.39624       91.57702
H         99.46361       63.13381       90.72314
N         96.37955       65.80603       88.55112
C         97.08456       67.08350       88.52596
C         98.39992       67.05542       87.76214
O         99.04987       68.09146       87.75206
C         96.14011       68.19392       87.95784
C         94.92443       68.40981       88.87300
C         95.65786       67.91096       86.51998
H         96.01074       65.46244       87.65571
H         97.36153       67.38758       89.55970
H         96.70461       69.15244       87.94127
H         94.29597       69.24153       88.48696
H         94.29729       67.49492       88.93247
H         95.26071       68.68224       89.89590
H         95.00503       67.01440       86.47190
H         95.05930       68.76898       86.14669
H         96.51799       67.76739       85.83371
N         98.88247       65.94489       87.12663
C        100.17997       65.94873       86.44556
C        100.06943       65.66944       84.95751
O        101.10786       65.67797       84.30631
C        101.13060       64.91391       87.08130
C        101.30728       65.09283       88.56623
N        101.72348       66.26600       89.09542
O        101.08416       64.14933       89.30464
H         98.33936       65.07116       87.13704
H        100.66325       66.94424       86.53295
H        102.13103       65.00689       86.60505
H        100.75044       63.88654       86.88369
H        101.92272       67.07939       88.49748
H        101.83720       66.36214       90.11572
N         98.88118       65.42703       84.33204
C         98.80667       65.10120       82.90519
C         97.38209       65.08812       82.38287
O         96.45799       65.02437       83.17740
C         99.48878       63.72607       82.64094
C         98.92204       62.62771       83.52903
C         99.69674       62.10186       84.57939
C         97.62096       62.12988       83.33800
C         99.17222       61.12179       85.42905
C         97.09940       61.14766       84.18361
C         97.86856       60.64433       85.23533
O         97.34570       59.70586       86.05020
H         98.01239       65.48164       84.88262
H         99.32472       65.91125       82.34447
H        100.56994       63.83358       82.85835
H         99.42597       63.43109       81.57173
H        100.70215       62.46258       84.75487
H         97.00405       62.49482       82.53580
H         99.77787       60.73870       86.24052
H         96.09298       60.78124       84.02212
H         97.84046       59.33708       86.79567
N         97.15869       65.09045       81.03240
C         95.86458       64.99990       80.35132
C         95.00975       66.26892       80.44181
O         94.68868       66.80882       79.39094
C         95.12104       63.71059       80.75415
C         93.87026       63.45569       79.89856
C         93.24119       62.11809       80.18977
O         93.77114       61.27904       81.10304
O         92.24310       61.77817       79.57568
H         97.98976       65.10668       80.41960
H         96.09423       64.87707       79.26652
H         94.83298       63.72959       81.82568
H         95.82337       62.86507       80.58215
H         94.15073       63.47248       78.82273
H         93.12242       64.25545       80.08687
N         94.57869       66.79821       81.62408
C         93.68299       67.94945       81.71482
C         94.25915       69.22289       81.10212
O         93.51231       70.18522       80.97870
C         93.32909       68.28087       83.19176
C         92.80240       67.13409       84.07318
C         91.53914       66.51912       83.56514
O         91.52839       65.88936       82.51988
O         90.41791       66.61902       84.29838
H         94.84387       66.34489       82.49089
H         92.75676       67.68609       81.15846
H         92.57204       69.09686       83.20111
H         94.24660       68.66304       83.69144
H         92.60791       67.56172       85.08073
H         93.55822       66.33578       84.21196
N         95.56712       69.33585       80.73356
C         96.09870       70.56577       80.18707
H         97.18216       70.44971       79.97341
H         95.57236       70.82204       79.24324
H         95.96900       71.39187       80.91919
H         96.22008       68.55078       80.86171
Ca        88.55525       65.56448       83.64262
O         86.59896       63.94957       81.86646
H         85.75033       64.42948       81.69371
H         86.32556       63.11931       82.33114
O         88.73748       65.96815       80.69982
H         89.33646       66.59804       81.17398
H         89.30635       65.18087       80.50691
O         86.39629       63.71510       85.03897
H         86.05608       62.79500       85.16959
H         86.59433       64.03812       85.95226

Ca 1.0



