%chk=apoCaM-CA-Ng.loop4.water2.frame263.chk
%nprocshared=20
%mem=10GB
%nosave
#b3lyp/svp scf=(tight,noincore,xqc) Test 
#IOP(5/87=12) Density=Current Pop=(MK,readradii) iop(6/33=2) iop(6/42=6)

apoCaM-CA-Ng.loop4.water2.frame263 

   -3  1 
C         32.15326       43.84613        8.57500
C         33.53256       44.17767        9.05036
O         33.88875       43.77755       10.14988
H         31.58572       44.78719        8.41861
H         32.20733       43.28018        7.62310
H         31.61795       43.23142        9.33126
N         34.37612       44.91045        8.26440
C         35.71042       45.31387        8.68950
C         36.55887       44.11183        9.06235
O         36.93604       43.96994       10.21112
C         35.66630       46.51952        9.68531
C         34.48668       46.62041       10.63719
O         34.46237       46.01331       11.83734
O         33.55484       47.35319       10.34451
H         34.06228       45.18958        7.32277
H         36.25834       45.74024        7.81715
H         35.52353       47.39822        9.01566
H         36.64601       46.71214       10.17575
N         36.91478       43.22802        8.07588
C         37.83003       42.08607        8.18102
C         39.28686       42.53900        8.32085
O         40.05103       42.24936        7.40884
C         37.36784       41.01966        9.21213
C         38.34746       39.81285        9.31086
C         35.94765       40.53924        8.85300
C         38.49711       38.97081        8.03880
H         36.52104       43.39410        7.13613
H         37.78998       41.57444        7.19156
H         37.33959       41.47938       10.22148
H         38.01078       39.13572       10.12427
H         39.35242       40.18395        9.59497
H         35.60618       39.75751        9.55294
H         35.22526       41.38035        8.89474
H         35.91275       40.11295        7.82857
H         37.53691       38.48759        7.76383
H         38.86746       39.57681        7.18899
H         39.24053       38.16836        8.22127
N         39.75778       43.26518        9.37901
C         41.13552       43.74143        9.43564
C         42.10091       42.56634        9.59828
O         42.92800       42.40712        8.71190
C         41.30869       44.87634       10.47463
C         42.68274       45.48312       10.41665
O         43.08923       45.99253        9.38382
O         43.46422       45.48778       11.51275
H         39.13174       43.53170       10.14072
H         41.34708       44.24434        8.46195
H         41.11002       44.54965       11.50663
H         40.57437       45.67991       10.24214
N         42.05992       41.64466       10.61349
C         41.13445       41.63371       11.73906
C         41.82913       41.30262       13.06268
O         43.00272       40.96173       13.03253
H         42.70387       40.84170       10.53840
H         40.40803       40.81750       11.56432
H         40.56136       42.56066       11.79154
N         41.18406       41.29849       14.27735
C         39.85338       41.84107       14.53721
C         38.81663       41.24024       13.58284
O         38.24397       41.96449       12.78087
C         39.97977       43.38079       14.55089
C         38.65469       44.05423       14.59589
O         37.85727       43.85601       15.49809
O         38.32712       44.77674       13.51652
H         41.70380       40.95017       15.09786
H         39.53123       41.59395       15.57314
H         40.49121       43.72770       13.63486
H         40.60772       43.70138       15.41049
N         38.53084       39.90815       13.56514
C         39.05661       38.93620       14.50498
C         39.98510       37.96399       13.83744
O         40.21544       38.04724       12.63829
H         37.88882       39.56016       12.84146
H         38.20795       38.39462       14.97589
H         39.62869       39.41455       15.31973
N         40.60649       37.02541       14.60180
C         41.60355       36.10164       14.07554
C         41.01230       35.09050       13.09277
O         41.78493       34.40073       12.44497
C         42.32426       35.42255       15.26497
C         43.50117       34.51947       14.86690
C         44.23887       34.02002       16.08176
N         44.88606       34.88191       16.90170
O         44.26590       32.82209       16.32093
H         40.40757       37.02531       15.61556
H         42.36066       36.71230       13.53322
H         41.59385       34.83432       15.86402
H         42.71529       36.24250       15.90746
H         44.21509       35.07841       14.22448
H         43.11720       33.64506       14.30285
H         44.89254       35.89401       16.70814
H         45.39560       34.53526       17.72771
N         39.66521       34.95708       12.90663
C         39.07969       34.02333       11.94358
C         38.20476       32.97139       12.60890
O         37.72597       32.09569       11.89859
C         38.30776       34.79438       10.83993
C         39.28158       35.61517        9.98692
C         37.19827       35.70449       11.39617
H         39.02079       35.53453       13.46152
H         39.87807       33.43909       11.43592
H         37.83615       34.04913       10.16151
H         40.05384       34.95020        9.54363
H         38.73220       36.10110        9.15632
H         39.78967       36.39428       10.59195
H         36.65107       36.18336       10.55705
H         36.47265       35.11870       11.99816
H         37.61486       36.51856       12.02619
N         37.97299       32.95823       13.95082
C         37.22570       31.90631       14.62380
C         35.96273       32.46394       15.24493
O         34.90871       31.88028       15.03649
C         38.11291       31.24373       15.69561
C         39.37981       30.68182       15.09369
N         40.59301       31.12218       15.50309
O         39.30958       29.82310       14.22647
H         38.37158       33.69793       14.54456
H         36.92628       31.09937       13.91553
H         37.55265       30.41294       16.17987
H         38.36809       31.98731       16.47997
H         40.67562       31.84368       16.23408
H         41.45618       30.74169       15.08735
N         35.99159       33.58209       16.03084
C         34.82414       34.06879       16.76263
C         34.41224       35.45852       16.31280
O         35.21697       36.14229       15.70400
C         35.19088       34.10626       18.25934
C         35.75183       32.77785       18.70881
C         34.94178       31.63329       18.73608
C         37.10733       32.67050       19.07068
C         35.47767       30.40070       19.12082
C         37.64241       31.43647       19.44731
C         36.83141       30.29829       19.47529
O         37.36274       29.11462       19.84075
H         36.88185       34.08387       16.16177
H         33.96049       33.38934       16.59692
H         34.32183       34.39624       18.88715
H         35.97270       34.88968       18.38976
H         33.89790       31.69667       18.45683
H         37.75755       33.53673       19.04392
H         34.84110       29.52579       19.13783
H         38.69022       31.36490       19.71206
H         36.83632       28.30340       19.87443
N         33.17521       35.94102       16.65429
C         32.63387       37.28026       16.39601
C         32.27250       37.57325       14.93784
O         31.11403       37.88545       14.69441
C         33.50973       38.37899       17.03552
C         32.85124       39.76794       16.92997
C         33.59256       40.79041       17.74045
O         32.95886       41.44831       18.73099
O         34.76528       41.03432       17.50775
H         32.56648       35.31239       17.20068
H         31.66470       37.33003       16.94649
H         34.51912       38.41594       16.57454
H         33.62240       38.12440       18.11304
H         31.80731       39.71570       17.31000
H         32.82123       40.09428       15.86756
N         33.18770       37.56446       13.92856
C         32.88617       38.01658       12.57143
C         31.81402       37.19684       11.86145
O         31.41364       37.60329       10.77802
C         34.16011       38.02537       11.69139
C         35.32797       38.85307       12.25758
C         34.95841       40.28634       12.51719
O         35.07345       40.79147       13.75957
O         34.55601       40.99915       11.61274
H         34.14650       37.30415       14.14101
H         32.50888       39.06040       12.64941
H         33.90158       38.43074       10.68857
H         34.51316       36.98033       11.55275
H         36.16237       38.80964       11.53239
H         35.71154       38.40609       13.19612
N         31.29669       36.04685       12.37847
C         30.25823       35.30905       11.69201
H         29.35795       35.94959       11.57069
H         30.61794       34.98546       10.69210
H         29.97735       34.41068       12.28054
H         31.63721       35.67095       13.27354
Ca        36.30447       45.14747       12.70084
O         32.77308       43.87868       13.21158
H         32.37288       44.58733       12.64816
H         32.64255       44.20130       14.13826
O         34.97819       43.41705       15.39653
H         35.35080       43.57652       16.29956
H         34.18882       42.84148       15.55447

Ca 1.0



