%chk=apoCaM-CA-Ng.loop3.water4.frame1071.chk
%nprocshared=20
%mem=10GB
%nosave
#b3lyp/svp scf=(tight,noincore,xqc) Test 
#IOP(5/87=12) Density=Current Pop=(MK,readradii) iop(6/33=2) iop(6/42=6)

apoCaM-CA-Ng.loop3.water4.frame1071 

   0  1 
C         42.63475       78.49972       29.32712
C         43.55108       78.60696       30.51005
O         43.71814       77.63646       31.23436
H         41.81417       79.24134       29.42022
H         43.20702       78.70930       28.39764
H         42.19856       77.48143       29.25253
N         44.20473       79.77551       30.74310
C         45.16749       79.97296       31.82030
C         44.75441       81.12607       32.77143
O         43.93776       80.64709       33.80782
C         46.57927       80.12540       31.22182
C         46.80118       81.19981       30.18616
O         47.09279       80.88397       29.04312
O         46.78166       82.50239       30.51865
H         44.04636       80.55500       30.08552
H         45.25276       79.06553       32.46058
H         46.82288       79.15060       30.74265
H         47.28283       80.27417       32.05198
N         44.06760       82.20950       32.06130
C         43.51743       83.28151       32.90615
C         44.58286       84.32963       33.20285
O         44.39539       85.49245       32.86969
C         42.30436       83.86944       32.15689
C         41.25932       82.77655       31.83955
C         40.20060       83.23487       30.83256
C         39.29812       84.36056       31.34448
N         38.32841       84.73469       30.31527
H         44.60529       82.60701       31.26542
H         43.13841       82.88205       33.87165
H         42.67290       84.30111       31.20052
H         41.83646       84.67866       32.75874
H         40.79116       82.40403       32.77706
H         41.76153       81.91577       31.34891
H         39.56351       82.35831       30.58289
H         40.71485       83.56128       29.90154
H         39.90512       85.25313       31.60689
H         38.76032       84.01489       32.25494
H         38.82870       85.09117       29.46799
H         37.74287       83.90847       30.05253
H         37.70695       85.48935       30.68393
N         45.73747       83.97612       33.83889
C         46.80964       84.90065       34.14705
C         48.10292       84.43234       33.49091
O         48.17328       83.29313       33.04887
C         46.88109       85.14111       35.67187
C         47.25786       83.98165       36.57845
O         46.54849       82.82906       36.70703
O         48.23731       84.12016       37.29395
H         45.89387       83.00428       34.09860
H         46.57149       85.88794       33.69492
H         45.89059       85.51941       36.00568
H         47.61480       85.96131       35.84003
N         49.13208       85.30225       33.28027
C         50.30947       84.95129       32.49276
C         49.88331       84.55824       31.08535
O         49.20093       85.35843       30.46117
H         49.04931       86.26989       33.62695
H         50.87492       84.15742       33.01455
H         50.97301       85.83952       32.41839
N         50.16841       83.35322       30.50369
C         51.04077       82.32368       31.06356
C         50.81824       81.01317       30.31035
O         51.04607       80.98877       29.10854
C         52.51743       82.77309       30.91896
C         53.54408       81.79207       31.44355
N         54.86166       82.06678       31.30794
O         53.20267       80.74985       31.98144
H         49.73227       83.16850       29.58517
H         50.79337       82.17671       32.12858
H         52.66921       83.73876       31.44334
H         52.72753       82.93930       29.83870
H         55.17312       82.93602       30.85035
H         55.57299       81.40501       31.65279
N         50.36020       79.87540       30.91154
C         50.04058       79.77139       32.33306
C         49.45596       78.42335       32.71021
O         49.37025       77.53870       31.86618
H         50.22035       79.05705       30.29871
H         49.30699       80.55456       32.59433
H         50.95068       79.94309       32.94312
N         48.99897       78.19721       33.97802
C         48.45339       76.90054       34.37331
C         47.65242       76.95486       35.68127
O         47.67207       77.96368       36.37444
C         49.64561       75.92017       34.50232
C         49.26505       74.47271       34.60500
C         49.55649       73.73536       35.76282
C         48.64672       73.83772       33.51693
C         49.23219       72.37791       35.82961
C         48.32936       72.48024       33.58306
C         48.62294       71.74454       34.74036
O         48.32999       70.43128       34.81388
H         49.03587       78.96908       34.65461
H         47.73494       76.59403       33.57996
H         50.25042       76.24007       35.38057
H         50.31175       75.99453       33.61735
H         50.03634       74.20861       36.61066
H         48.42641       74.39173       32.61234
H         49.46182       71.81689       36.72625
H         47.86277       72.00150       32.73170
H         47.92236       69.95519       34.07643
N         46.88089       75.88972       36.05262
C         46.08231       75.84069       37.28454
C         46.94741       75.87996       38.54196
O         48.16561       75.83024       38.44541
C         45.13540       74.59146       37.32356
C         43.97846       74.76238       36.31147
C         45.89416       73.25765       37.14188
C         42.90848       73.67411       36.42072
H         46.82930       75.10261       35.39486
H         45.44296       76.74562       37.31545
H         44.65286       74.55823       38.32275
H         44.36247       74.80663       35.27061
H         43.46858       75.72378       36.53708
H         46.30569       73.14744       36.11904
H         46.72501       73.17697       37.87252
H         45.22055       72.39490       37.31550
H         42.06654       73.91526       35.73832
H         43.31103       72.68340       36.13022
H         42.51355       73.62392       37.45874
N         46.34992       75.97816       39.77179
C         47.08193       76.01960       41.03528
C         46.80882       77.31493       41.78057
O         45.86654       78.01608       41.44503
C         46.68913       74.81245       41.89950
O         45.31139       74.84130       42.16982
H         45.32151       76.03395       39.82005
H         48.17432       75.97330       40.83730
H         47.25214       74.82459       42.85788
H         46.94985       73.88661       41.33646
H         45.04837       73.91556       42.41206
N         47.63809       77.70669       42.79542
C         47.53574       78.97769       43.51294
C         46.30688       79.09572       44.39945
O         46.11971       80.16813       44.95828
C         47.60580       80.16349       42.52838
H         48.43709       77.09941       43.03209
H         48.41698       79.06933       44.18543
H         47.64120       81.12515       43.08371
H         48.52136       80.09169       41.90560
H         46.72185       80.20876       41.86043
N         45.42342       78.06762       44.58741
C         44.17837       78.21681       45.33356
C         43.34237       79.26134       44.62851
O         43.01771       80.29765       45.19251
C         44.42544       78.51605       46.82168
H         45.59588       77.15370       44.14644
H         43.61847       77.25519       45.29740
H         45.02391       77.69677       47.27319
H         44.95572       79.47519       46.98242
H         43.45257       78.56847       47.35684
N         42.98905       79.02560       43.33749
C         42.27528       79.96417       42.49212
C         40.88379       79.42325       42.25679
O         39.92330       80.10468       42.58893
C         43.08352       80.16036       41.19122
C         42.44289       81.16397       40.22500
C         43.29393       81.33728       38.99852
O         44.54764       81.81913       39.10645
O         42.85135       81.04987       37.89791
H         43.24919       78.11544       42.92530
H         42.18345       80.95542       42.99177
H         43.19960       79.18259       40.67494
H         44.09831       80.52630       41.46629
H         42.33260       82.15138       40.72122
H         41.43646       80.79829       39.92728
N         40.69414       78.17982       41.73690
C         39.37459       77.60880       41.58934
H         38.76516       78.22866       40.89967
H         39.45181       76.57852       41.18285
H         38.87644       77.55777       42.58223
H         41.50626       77.60475       41.46833
Ca        44.87488       81.66265       35.65477
O         47.91259       80.98597       35.36972
H         48.84465       81.31621       35.41971
H         47.66941       81.05405       34.41356
O         48.13434       80.30248       38.31374
H         48.90412       80.90943       38.17869
H         48.53109       79.46808       38.67026
O         43.96952       78.40913       35.74423
H         43.22417       78.17968       36.35448
H         43.93232       77.72129       35.03276
O         45.41839       78.98446       38.56648
H         44.73545       78.39430       38.97272
H         45.86801       79.41117       39.33721

Ca 1.0



