%chk=apoCaM-CA-Ng.loop2.water3.frame1376.chk
%nprocshared=20
%mem=10GB
%nosave
#b3lyp/svp scf=(tight,noincore,xqc) Test 
#IOP(5/87=12) Density=Current Pop=(MK,readradii) iop(6/33=2) iop(6/42=6)

apoCaM-CA-Ng.loop2.water3.frame1376 

   -2  1 
C         22.02435       42.64604       48.61783
C         23.14932       42.94068       49.56893
O         24.20633       43.34801       49.10925
H         21.15900       43.30029       48.85706
H         22.33474       42.86078       47.57246
H         21.72432       41.58182       48.68777
N         23.01874       42.82409       50.92040
C         21.80376       42.39850       51.61283
C         22.08563       41.41753       52.75314
O         21.15251       41.08763       53.47216
C         21.04345       43.65211       52.08903
C         21.87912       44.62429       52.87414
O         22.06523       45.74595       52.43016
O         22.41958       44.29493       54.05947
H         23.80774       43.15678       51.49824
H         21.10567       41.87516       50.92597
H         20.14315       43.36251       52.67198
H         20.68510       44.18069       51.17770
N         23.32515       40.88772       52.96770
C         23.65188       39.98817       54.06953
C         24.76735       40.57139       54.92844
O         25.27161       39.86319       55.78978
C         24.08989       38.63946       53.48635
H         24.09507       41.11417       52.32194
H         22.77412       39.79512       54.72470
H         24.32538       37.92141       54.30220
H         23.26774       38.20609       52.87836
H         24.98940       38.75938       52.84546
N         25.20405       41.85497       54.75571
C         26.34965       42.42096       55.45659
C         25.93276       43.53434       56.39780
O         24.76536       43.89175       56.44588
C         27.38231       42.90145       54.40897
C         26.81686       43.91208       53.43828
O         26.76363       43.65264       52.24644
O         26.36140       45.10033       53.87387
H         24.71989       42.47104       54.08810
H         26.83730       41.64840       56.08999
H         27.72400       42.01317       53.83307
H         28.27057       43.34014       54.90910
N         26.85593       44.09455       57.22753
C         26.54835       45.16118       58.16502
C         26.35721       46.49316       57.47705
O         26.45312       46.57431       56.26127
H         27.81759       43.72123       57.22638
H         27.42262       45.29021       58.84044
H         25.67104       44.88777       58.78932
N         26.16820       47.61043       58.23325
C         26.16413       48.96410       57.68334
C         27.40746       49.73151       58.13129
O         27.58857       50.86065       57.69647
C         24.89429       49.71185       58.12709
C         23.63831       49.01169       57.67707
N         22.72944       48.57535       58.58063
O         23.43468       48.84556       56.48408
H         26.10004       47.50114       59.25768
H         26.19501       48.93208       56.57282
H         24.89388       50.73731       57.69782
H         24.90156       49.80589       59.23568
H         22.88003       48.70863       59.59138
H         21.86743       48.10444       58.26991
N         28.30863       49.17888       58.99454
C         29.51651       49.82298       59.47104
C         30.71393       48.93955       59.17447
O         30.58917       48.02977       58.36456
H         28.15078       48.23723       59.37593
H         29.39268       49.91524       60.56698
H         29.66810       50.84033       59.05026
N         31.91057       49.07620       59.81467
C         32.18301       50.04127       60.88040
C         32.42232       51.44984       60.31962
O         32.67021       52.35688       61.10019
C         33.39019       49.52591       61.72232
C         33.59867       50.29906       63.03427
O         33.15508       48.18102       62.06329
H         32.63931       48.37990       59.58756
H         31.32424       50.04622       61.58389
H         34.30756       49.59431       61.09049
H         34.04168       47.75268       62.19428
H         32.68293       50.23705       63.66225
H         34.43802       49.84526       63.60230
H         33.85808       51.36012       62.87107
N         32.35888       51.71731       58.98042
C         32.69148       53.00885       58.38787
C         31.42126       53.67404       57.86356
O         30.70089       53.01664       57.12420
C         33.72626       52.78583       57.24813
C         35.06117       52.18440       57.76135
C         33.97706       54.06890       56.44395
C         35.84814       53.08523       58.72194
H         32.08387       50.97622       58.32177
H         33.15354       53.64549       59.14686
H         33.29244       52.05091       56.53170
H         35.71006       51.97127       56.88402
H         34.86208       51.21593       58.26843
H         34.69688       53.86885       55.62348
H         33.02826       54.39993       55.98232
H         34.35535       54.89293       57.08105
H         36.79373       52.57925       59.00578
H         36.11383       54.04884       58.24111
H         35.28001       53.28342       59.65252
N         31.03655       54.95508       58.17722
C         31.78893       55.92940       58.97505
C         31.83718       57.30195       58.30102
O         30.79834       57.82503       57.92757
C         31.21091       56.03114       60.40191
C         29.79379       56.52523       60.48125
O         29.51946       57.66381       61.14617
O         28.88349       55.88715       59.97844
H         30.11777       55.26222       57.82239
H         32.83374       55.62148       59.12694
H         31.86034       56.72184       60.98539
H         31.26855       55.03213       60.88724
N         33.02064       57.98591       58.22997
C         33.13663       59.37970       57.79666
C         34.38081       59.57749       56.92798
O         35.43576       59.12878       57.34951
C         33.32012       60.25636       59.05886
C         33.42425       61.72043       58.69617
C         34.68486       62.31834       58.51991
C         32.26552       62.48666       58.48595
C         34.78298       63.65631       58.12954
C         32.36895       63.82891       58.10485
C         33.62638       64.41129       57.92181
H         33.85798       57.54727       58.64087
H         32.21057       59.72883       57.29819
H         34.23764       59.93687       59.60180
H         32.47370       60.11305       59.76618
H         35.59082       61.74214       58.66097
H         31.28558       62.04368       58.61208
H         35.75663       64.10438       57.97821
H         31.47439       64.41592       57.94283
H         33.70521       65.44624       57.61515
N         34.39535       60.35779       55.79527
C         33.26246       61.03901       55.18497
C         32.28384       60.06306       54.58236
O         31.09557       60.13025       54.85142
C         33.89621       61.88777       54.06458
C         35.28003       62.15174       54.61413
C         35.63632       60.77899       55.17209
H         32.79277       61.71727       55.92706
H         34.05797       61.28084       53.14521
H         33.30590       62.78332       53.77598
H         36.00764       62.55201       53.87645
H         35.18696       62.86912       55.45839
H         35.88231       60.07242       54.34875
H         36.49088       60.86369       55.87735
N         32.76712       59.10226       53.74927
C         31.95272       58.10939       53.07372
C         31.19700       58.78362       51.93801
O         31.84903       59.32595       51.05660
C         32.87816       57.00479       52.51014
C         33.62178       56.28146       53.64769
C         34.63249       55.30517       53.12472
O         35.93333       55.45206       53.44572
O         34.28584       54.37068       52.42148
H         33.78607       59.06976       53.60308
H         31.27707       57.62621       53.81024
H         33.62008       57.46466       51.81912
H         32.28035       56.25990       51.94074
H         32.87502       55.75946       54.27440
H         34.16405       57.00318       54.29450
N         29.83738       58.81937       51.85644
C         28.95239       58.23516       52.83799
H         27.89679       58.40714       52.53780
H         29.12576       57.14120       52.90751
H         29.11207       58.71114       53.82734
H         29.40681       59.29699       51.04900
Ca        23.56290       45.95877       55.08358
O         21.47032       48.04689       54.20133
H         20.92614       48.54755       54.85929
H         22.00311       48.74023       53.73663
O         25.43473       48.18841       53.59942
H         25.88446       48.90962       54.10687
H         26.13694       47.83548       52.99716
O         21.18879       45.73860       57.04241
H         21.89704       45.28844       57.56827
H         20.93472       45.07793       56.35029

Ca 1.0



