%chk=apoCaM-CA-Ng.loop2.water4.frame1227.chk
%nprocshared=20
%mem=10GB
%nosave
#b3lyp/svp scf=(tight,noincore,xqc) Test 
#IOP(5/87=12) Density=Current Pop=(MK,readradii) iop(6/33=2) iop(6/42=6)

apoCaM-CA-Ng.loop2.water4.frame1227 

   -2  1 
C         46.97035        2.88082      122.28447
C         45.77176        2.57078      121.42854
O         44.81833        3.33450      121.47564
H         47.87282        3.06097      121.67613
H         46.78999        3.80291      122.87571
H         47.15472        2.04682      122.99216
N         45.68591        1.45955      120.64202
C         46.74100        0.45227      120.49955
C         46.16126       -0.87453      120.00076
O         44.94982       -1.00142      119.87782
C         47.88353        0.97158      119.58333
C         47.44180        1.11289      118.16803
O         48.02734        0.37791      117.20748
O         46.51746        1.85771      117.88072
H         44.79091        1.32015      120.14637
H         47.16948        0.22812      121.49847
H         48.73751        0.26470      119.61097
H         48.27570        1.94361      119.92029
N         46.98242       -1.91802      119.69252
C         46.51045       -3.22478      119.26391
C         45.54529       -3.13066      118.08864
O         44.44520       -3.65940      118.19512
C         45.89264       -3.97320      120.46018
H         48.00209       -1.79518      119.75809
H         47.39211       -3.82268      118.94163
H         46.63294       -4.05058      121.28434
H         44.99139       -3.44877      120.84243
H         45.60216       -5.00406      120.16151
N         45.89437       -2.51767      116.91455
C         45.00898       -2.59485      115.74988
C         45.70849       -2.39373      114.42097
O         46.88957       -2.07995      114.36997
C         43.68088       -1.79043      115.90514
C         43.56203       -0.30300      115.62044
O         42.44824        0.18653      115.72102
O         44.55413        0.51052      115.20411
H         46.84122       -2.11921      116.83003
H         44.70666       -3.66591      115.69841
H         43.26250       -1.97592      116.91424
H         42.96286       -2.24499      115.19111
N         45.02724       -2.68047      113.28109
C         45.61788       -2.65682      111.96282
C         45.91591       -1.27438      111.45398
O         45.73738       -0.28281      112.14861
H         44.05564       -3.01465      113.35016
H         44.89029       -3.10203      111.25203
H         46.53964       -3.27984      111.94755
N         46.36685       -1.16723      110.17885
C         46.69140        0.08762      109.52419
C         45.44053        0.96501      109.42993
O         44.47567        0.56210      108.79454
C         47.27635       -0.25049      108.13426
C         47.93479        0.90735      107.45535
N         49.23875        0.83842      107.10206
O         47.29006        1.90791      107.20418
H         46.49641       -2.04656      109.65239
H         47.48565        0.58850      110.12249
H         46.48187       -0.67142      107.48015
H         48.04915       -1.04004      108.26580
H         49.80554       -0.00009      107.29703
H         49.68369        1.62244      106.61692
N         45.38116        2.16459      110.07530
C         44.19198        3.02353      110.05224
C         44.37754        4.28895      110.88905
O         45.41681        4.43060      111.51578
H         46.21721        2.45468      110.60195
H         43.32016        2.46541      110.45608
H         43.97641        3.28948      109.00023
N         43.44780        5.28760      110.98326
C         42.17440        5.37798      110.26474
C         42.41427        5.38809      108.76065
O         41.70266        4.70037      108.04232
C         41.39193        6.65108      110.69813
C         40.98974        6.58844      112.18440
O         42.16646        7.79940      110.45700
H         43.70138        6.07697      111.59823
H         41.53415        4.50311      110.51781
H         40.45568        6.70254      110.09521
H         41.57571        8.58475      110.60096
H         40.40597        7.49235      112.46104
H         40.35439        5.69746      112.37393
H         41.87528        6.54020      112.85119
N         43.50071        6.03452      108.24735
C         43.96861        5.88767      106.86626
C         45.16518        4.94498      106.86148
O         45.74516        4.72450      107.91565
C         44.32214        7.26429      106.21293
C         45.10170        8.18830      107.18672
C         43.04979        7.93240      105.67306
C         45.69582        9.42830      106.52521
H         44.11661        6.52022      108.91442
H         43.19768        5.36266      106.26392
H         44.97513        7.08325      105.33568
H         45.94929        7.62108      107.62864
H         44.43006        8.52329      108.00794
H         42.33418        8.15332      106.49098
H         43.28995        8.86629      105.12641
H         42.56039        7.25508      104.93869
H         44.91130       10.07663      106.08815
H         46.23968       10.02117      107.29133
H         46.41315        9.12513      105.73563
N         45.56808        4.25419      105.75387
C         45.00727        4.33724      104.41360
C         46.14489        4.16943      103.42119
O         46.77167        3.11744      103.40558
C         43.92958        3.25623      104.20916
C         43.33265        3.33158      102.82878
O         43.40149        2.37293      102.07657
O         42.72135        4.45890      102.41525
H         46.31911        3.56862      105.88491
H         44.51247        5.31180      104.25705
H         43.11146        3.40490      104.94572
H         44.36515        2.24770      104.38120
N         46.48755        5.18539      102.58691
C         47.58672        5.10180      101.63045
C         47.75131        6.45500      100.94752
O         46.77005        6.92003      100.37845
C         47.30697        4.03874      100.53410
C         48.48402        3.95058       99.58891
C         48.44941        4.61328       98.35017
C         49.64455        3.24827       99.95992
C         49.56287        4.58891       97.50576
C         50.75125        3.21420       99.10451
C         50.71258        3.88995       97.88183
H         45.95848        6.06823      102.66403
H         48.51091        4.81565      102.17403
H         46.39010        4.34199       99.98205
H         47.10439        3.02641      100.94276
H         47.57227        5.17338       98.05195
H         49.69268        2.73178      100.91068
H         49.53699        5.12017       96.56329
H         51.64298        2.67260       99.39312
H         51.57445        3.87547       97.22712
N         48.93886        7.13564      100.89019
C         50.22795        6.64792      101.37090
C         50.42686        6.67607      102.87076
O         51.51975        6.32572      103.29884
C         51.23850        7.62159      100.73997
C         50.51546        8.07863       99.48916
C         49.12063        8.29866      100.04941
H         50.39271        5.63543      100.95058
H         51.33346        8.52886      101.38387
H         52.25479        7.19819      100.59034
H         50.95897        8.97324       99.00400
H         50.48483        7.23579       98.76242
H         49.11688        9.20372      100.69872
H         48.36022        8.41353       99.24738
N         49.47063        7.14248      103.72642
C         49.73593        7.37799      105.14347
C         49.49677        8.84794      105.47196
O         48.89845        9.53975      104.65859
C         48.85999        6.44264      106.01088
C         49.16890        4.95769      105.73587
C         50.56845        4.53690      106.11914
O         50.96582        3.42697      105.81343
O         51.39189        5.35353      106.80222
H         48.53954        7.39607      103.36419
H         50.80571        7.18775      105.34285
H         47.79012        6.63530      105.77086
H         48.99790        6.64422      107.09359
H         49.01328        4.75943      104.65476
H         48.45950        4.31977      106.30031
N         49.95790        9.44998      106.60768
C         50.77233        8.82439      107.63101
H         51.74627        9.35578      107.68971
H         50.26134        8.90287      108.61134
H         50.98959        7.76253      107.43850
H         49.75392       10.45258      106.74003
Ca        46.76186        0.38217      115.39998
O         49.00468        1.05196      112.62907
H         49.77763        0.44385      112.51607
H         49.26533        1.87570      112.14541
O         50.08380       -0.27876      115.22713
H         50.50590       -1.06043      114.79096
H         50.48737       -0.24902      116.13077
O         47.14536        3.25182      113.61026
H         46.16403        3.16654      113.70826
H         47.33345        4.20734      113.79002
O         49.25139        2.83899      115.66230
H         49.88150        2.41720      116.29851
H         49.83026        3.33372      115.02945

Ca 1.0



