%chk=apoCaM-CA-Ng.loop4.water6.frame935.chk
%nprocshared=20
%mem=10GB
%nosave
#b3lyp/svp scf=(tight,noincore,xqc) Test 
#IOP(5/87=12) Density=Current Pop=(MK,readradii) iop(6/33=2) iop(6/42=6)

apoCaM-CA-Ng.loop4.water6.frame935 

   -3  1 
C         58.24479       94.97416       86.72363
C         56.79810       94.94293       87.11724
O         55.96495       94.58334       86.30074
H         58.82577       94.29298       87.37913
H         58.37601       94.64765       85.67025
H         58.63838       96.00603       86.83029
N         56.43090       95.27583       88.38580
C         55.05495       95.27673       88.87796
C         54.37358       93.95258       88.56468
O         53.29543       93.94602       87.98268
C         54.25443       96.46920       88.30175
C         54.90070       97.79216       88.59784
O         55.21409       98.53794       87.68447
O         55.11469       98.17422       89.87094
H         57.17575       95.50916       89.06065
H         55.09338       95.39976       89.98329
H         53.23805       96.47659       88.75189
H         54.14166       96.35285       87.20253
N         54.99399       92.77618       88.85295
C         54.42088       91.49804       88.44924
C         53.21261       91.20658       89.34203
O         53.42337       91.14422       90.54553
C         55.46307       90.33858       88.54090
C         56.79260       90.62568       87.77875
C         54.83951       89.02169       88.03430
C         56.65507       90.89097       86.27578
H         55.91989       92.80806       89.30345
H         54.17458       91.57251       87.37899
H         55.74209       90.19175       89.60780
H         57.47222       89.75625       87.91611
H         57.30860       91.49830       88.22732
H         54.50506       89.11586       86.97915
H         55.57290       88.19139       88.10481
H         53.95818       88.74157       88.64630
H         56.21420       90.02063       85.74979
H         56.04069       91.79328       86.08331
H         57.66367       91.07221       85.84668
N         51.93172       90.99166       88.90618
C         51.44993       90.98748       87.52604
C         50.31562       92.00836       87.38848
O         49.97351       92.65300       88.37266
C         50.98078       89.54551       87.20842
C         50.87477       89.17047       85.74989
O         50.41540       87.94809       85.42435
O         51.28335       89.90421       84.86451
H         51.22814       90.77525       89.63166
H         52.25058       91.25571       86.82348
H         50.01637       89.36164       87.73035
H         51.72378       88.82981       87.61955
N         49.68310       92.22213       86.20178
C         48.61375       93.19105       86.06400
C         48.12608       93.24669       84.63529
O         47.56726       92.27255       84.15067
H         49.97498       91.70912       85.36657
H         49.00127       94.18607       86.37311
H         47.76317       92.93011       86.73200
N         48.31510       94.37744       83.90308
C         47.82574       94.56051       82.54094
C         48.33245       93.53643       81.53490
O         47.63197       93.31658       80.55557
C         48.10524       96.00006       82.03912
C         49.57123       96.36811       81.93879
O         50.02609       96.77346       80.88154
O         50.37723       96.31619       83.01667
H         48.78508       95.16575       84.36783
H         46.71922       94.44226       82.58429
H         47.62544       96.71297       82.74129
H         47.62908       96.13336       81.04205
N         49.52889       92.89083       81.66534
C         50.00305       91.95503       80.65047
C         50.33587       92.62643       79.32149
O         50.61100       91.91695       78.36528
H         50.11821       93.06085       82.49378
H         49.22668       91.17298       80.50146
H         50.92781       91.44905       81.00418
N         50.39343       93.98735       79.20677
C         50.76826       94.72797       78.00493
C         52.19576       94.44845       77.55663
O         52.55269       94.82377       76.44794
C         49.71551       94.60469       76.88270
C         48.35821       95.15837       77.35767
C         47.37885       95.30147       76.22241
N         46.18920       94.65855       76.24250
O         47.65318       96.03314       75.28223
H         50.20727       94.55363       80.03517
H         50.78169       95.81126       78.25926
H         49.61046       93.55949       76.52134
H         50.05946       95.23396       76.03166
H         48.50052       96.17324       77.79008
H         47.95013       94.50074       78.15383
H         45.92997       94.04729       77.02980
H         45.51931       94.78133       75.46848
N         53.10166       93.90361       78.41772
C         54.51756       93.73058       78.11517
C         55.39446       94.52120       79.08894
O         56.60833       94.44192       78.96406
C         54.88047       92.21768       78.14266
C         54.64104       91.56421       79.51783
C         54.10024       91.45883       77.05954
H         52.78979       93.62558       79.35764
H         54.75356       94.11168       77.09687
H         55.96212       92.11555       77.90275
H         53.56801       91.58374       79.80044
H         54.96198       90.50158       79.49375
H         55.22879       92.07994       80.30599
H         53.00730       91.51130       77.24480
H         54.31141       91.89514       76.06005
H         54.40273       90.39066       77.04302
N         54.85847       95.27606       80.09740
C         55.64966       95.92312       81.13170
C         55.35096       97.41353       81.21010
O         54.21370       97.78936       81.45697
C         55.30144       95.25930       82.47640
C         55.95844       95.96771       83.62912
N         55.20034       96.57762       84.57055
O         57.17689       96.01144       83.70141
H         53.83834       95.35902       80.19630
H         56.73899       95.77582       80.95820
H         55.61160       94.19110       82.46486
H         54.19833       95.28640       82.61438
H         54.17125       96.55371       84.52091
H         55.63892       97.07352       85.35696
N         56.36805       98.31328       81.09182
C         56.22604       99.74105       81.36934
C         57.52229      100.45647       81.04437
O         58.56427      100.04167       81.53119
C         55.90837       99.97368       82.87004
C         55.94167      101.44860       83.22100
C         55.05502      102.35217       82.61156
C         56.89384      101.93579       84.13459
C         55.13125      103.71892       82.89821
C         56.96386      103.30105       84.42341
C         56.09003      104.19816       83.80261
O         56.18409      105.51473       84.07794
H         57.30302       97.95274       80.84571
H         55.41036      100.17000       80.74824
H         56.67380       99.43447       83.46826
H         54.91743       99.55268       83.13862
H         54.31581      102.00155       81.90312
H         57.59428      101.26360       84.61386
H         54.44980      104.40487       82.41129
H         57.70565      103.66273       85.12350
H         55.60975      106.17090       83.65801
N         57.51222      101.59093       80.28714
C         58.71732      102.34577       79.98618
C         58.64482      103.70830       80.66244
O         57.84142      104.51892       80.22135
C         58.84149      102.49472       78.45626
C         60.10158      103.25555       78.02293
C         60.09933      103.46012       76.53529
O         59.11342      104.17315       75.95535
O         60.99280      102.99559       75.84651
H         56.61068      101.95569       79.94272
H         59.59433      101.79108       80.33774
H         57.94111      103.03255       78.08193
H         58.85203      101.48465       77.99019
H         61.00134      102.68241       78.33668
H         60.13647      104.25758       78.50018
N         59.40344      104.07513       81.74151
C         60.27661      103.20392       82.52953
C         61.46632      102.67092       81.74993
O         62.26426      103.44991       81.24757
C         60.77542      103.97332       83.78363
C         61.70444      103.18332       84.72921
C         61.09113      101.92883       85.28609
O         60.78280      101.01172       84.54687
O         60.93694      101.76692       86.61022
H         59.26496      105.03915       82.08675
H         59.65186      102.36030       82.88636
H         59.89423      104.31823       84.36550
H         61.33212      104.87835       83.45253
H         61.97950      103.85221       85.57374
H         62.64175      102.91161       84.19902
N         61.66216      101.32385       81.65960
C         62.80147      100.73361       80.99839
H         63.73733      101.06144       81.49787
H         62.73804       99.62517       81.06802
H         62.81569      101.02455       79.92846
H         60.98373      100.68082       82.09112
Ca        60.20727       99.72339       87.22887
O         58.56848       98.24408       89.14202
H         57.78264       98.72660       88.78285
H         58.40854       98.20134       90.11738
O         61.47044       99.99103       89.82557
H         62.34536       99.81449       89.39659
H         61.33994      100.96802       89.72975
O         57.72791      101.31947       87.51902
H         56.81362      101.09673       87.21223
H         57.72682      102.30429       87.61570
O         62.84698       98.88691       85.54052
H         62.97929       98.42743       86.40745
H         63.23056       99.78948       85.67682
O         57.77914       98.51222       86.03315
H         58.01122       97.98134       85.23245
H         56.98069       99.03030       85.76473
O         60.38858       98.14572       83.79447
H         60.08759       97.23054       83.56796
H         59.61629       98.72256       83.57006

Ca 1.0



