%chk=apoCaM-CA-Ng.loop3.water2.frame558.chk
%nprocshared=20
%mem=10GB
%nosave
#b3lyp/svp scf=(tight,noincore,xqc) Test 
#IOP(5/87=12) Density=Current Pop=(MK,readradii) iop(6/33=2) iop(6/42=6)

apoCaM-CA-Ng.loop3.water2.frame558 

   0  1 
C         36.37197       12.89833      -14.76412
C         35.16804       12.39533      -15.50011
O         34.22052       13.14689      -15.68358
H         37.25834       12.84523      -15.43097
H         36.22751       13.95283      -14.44594
H         36.55093       12.27171      -13.86590
N         35.14478       11.11661      -15.96820
C         34.02777       10.58133      -16.73513
C         32.77474       10.57677      -15.88730
O         32.75903        9.92141      -14.85301
C         34.34922        9.15452      -17.21384
C         33.43960        8.66078      -18.30301
O         33.65741        7.56313      -18.79056
O         32.54000        9.47541      -18.89719
H         35.97121       10.52161      -15.79898
H         33.90247       11.23051      -17.62924
H         34.36051        8.45168      -16.35384
H         35.36701        9.15422      -17.66222
N         31.69791       11.32983      -16.24019
C         30.51367       11.42468      -15.39359
C         29.74726       10.11065      -15.36242
O         29.01321        9.86942      -14.41529
C         29.58669       12.53456      -15.91329
C         28.73404       13.18029      -14.81496
C         27.86005       14.29696      -15.41096
C         27.31935       15.27446      -14.35591
N         26.48877       14.62675      -13.34332
H         31.75756       11.89841      -17.09944
H         30.88086       11.70718      -14.38077
H         28.96839       12.12207      -16.73545
H         30.21310       13.36257      -16.31366
H         29.44229       13.62801      -14.08313
H         28.09993       12.43453      -14.28988
H         27.03472       13.84369      -16.00327
H         28.47513       14.91747      -16.09876
H         26.72220       16.05466      -14.87832
H         28.17731       15.78114      -13.85930
H         27.05280       13.94177      -12.79142
H         26.13536       15.36047      -12.68693
H         25.67543       14.14972      -13.79347
N         29.83430        9.24460      -16.41625
C         29.10757        7.98695      -16.51260
C         30.05298        6.79115      -16.43616
O         29.56292        5.66963      -16.44634
C         28.21300        8.00359      -17.77823
C         28.95348        8.26331      -19.06646
O         29.87081        7.39474      -19.51837
O         28.70513        9.26169      -19.72388
H         30.44577        9.48455      -17.20921
H         28.42350        7.86963      -15.64384
H         27.46454        8.81654      -17.64682
H         27.65410        7.04711      -17.86651
N         31.40545        6.94204      -16.27702
C         32.31493        5.83480      -16.01838
C         32.42617        4.81006      -17.12925
O         33.04656        3.78566      -16.88580
H         31.81426        7.88244      -16.24246
H         31.95249        5.31597      -15.10323
H         33.33178        6.22475      -15.79930
N         31.82423        4.97775      -18.34196
C         31.70441        3.91147      -19.32690
C         32.22221        4.31316      -20.70349
O         31.89400        5.38733      -21.18732
C         30.21246        3.54526      -19.42802
C         30.00004        2.28277      -20.22171
N         30.49588        1.10347      -19.77545
O         29.36425        2.32009      -21.26377
H         31.33832        5.85576      -18.53753
H         32.24452        3.00581      -18.97921
H         29.65368        4.39726      -19.87690
H         29.79973        3.36765      -18.41091
H         31.01559        1.05099      -18.88639
H         30.34859        0.23504      -20.30920
N         32.93704        3.41315      -21.43971
C         33.34258        3.61378      -22.82376
C         34.37160        4.70646      -22.97071
O         35.38794        4.66628      -22.29300
H         33.14075        2.49146      -21.02597
H         32.44375        3.81412      -23.45096
H         33.79954        2.67283      -23.19531
N         34.17751        5.71040      -23.87038
C         35.07901        6.85315      -24.02575
C         35.15361        7.64073      -22.68462
O         33.97096        7.49443      -21.94266
C         34.61295        7.70242      -25.24393
C         34.93547        6.98991      -26.54069
C         33.92334        6.50751      -27.38530
C         36.28131        6.81648      -26.91926
C         34.25384        5.85203      -28.57905
C         36.60798        6.16976      -28.11307
C         35.59419        5.68157      -28.94694
O         35.89575        5.05134      -30.10069
H         33.32594        5.67523      -24.45357
H         36.11374        6.50806      -24.23517
H         35.12463        8.68244      -25.31455
H         33.53059        7.91378      -25.14226
H         32.88185        6.62973      -27.11811
H         37.08157        7.19128      -26.29256
H         33.46731        5.47588      -29.22058
H         37.64910        6.05007      -28.38811
H         36.81012        4.91583      -30.38952
N         35.70361        9.01088      -22.80412
C         36.52534        9.55855      -21.69018
C         35.73066       10.57798      -20.89617
O         34.78034       10.20951      -20.23940
C         37.19082        8.52031      -20.71788
C         38.04503        9.22817      -19.61385
C         38.06107        7.47228      -21.43848
C         39.26020       10.02068      -20.12399
H         36.38190        8.96602      -23.60046
H         37.36469       10.11617      -22.16380
H         36.37940        7.97187      -20.18954
H         38.41535        8.46307      -18.89833
H         37.40708        9.92365      -19.02798
H         38.51025        6.78414      -20.68943
H         37.47517        6.84223      -22.12939
H         38.87273        7.94923      -22.02263
H         39.98226        9.36100      -20.64593
H         38.96344       10.84367      -20.80322
H         39.78892       10.47985      -19.26261
N         36.13516       11.87565      -20.83035
C         35.54639       12.85145      -19.91262
C         34.14730       13.33399      -20.29662
O         33.65216       14.20255      -19.58959
C         36.48676       14.06620      -19.78675
O         37.73976       13.66356      -19.29518
H         36.97412       12.14837      -21.36346
H         35.49965       12.40251      -18.89657
H         36.07053       14.80038      -19.06350
H         36.58454       14.59418      -20.76386
H         38.35465       13.59243      -20.07054
N         33.43430       12.84751      -21.35640
C         32.15028       13.41414      -21.77085
C         30.99743       12.50726      -21.40053
O         31.00977       11.36570      -21.83419
C         32.16499       13.67513      -23.27811
H         33.80682       12.06084      -21.90754
H         31.99777       14.38275      -21.30062
H         32.31150       12.72636      -23.83872
H         31.20275       14.13202      -23.59548
H         32.98961       14.37299      -23.53478
N         29.94131       12.89192      -20.61722
C         29.73147       14.20526      -19.99323
C         29.51613       15.31204      -21.01962
O         28.61489       15.15397      -21.83140
C         28.45299       14.16173      -19.14113
H         29.22783       12.16679      -20.43569
H         30.57122       14.41187      -19.30326
H         28.53200       13.37482      -18.38139
H         28.28445       15.13191      -18.62834
H         27.56190       13.92997      -19.76457
N         30.22499       16.48578      -21.05986
C         31.33517       16.85688      -20.17660
C         32.35806       17.81117      -20.80902
O         33.36258       18.06054      -20.15742
C         30.84953       17.38300      -18.80379
C         30.21681       18.78395      -18.82770
C         28.92238       18.82557      -19.58049
O         27.88272       18.07173      -19.17561
O         28.79786       19.55924      -20.54779
H         29.90420       17.15604      -21.76752
H         31.92259       15.95767      -19.95702
H         31.73999       17.44935      -18.13968
H         30.15526       16.65619      -18.33288
H         30.94023       19.51016      -19.25965
H         30.01532       19.09804      -17.78111
N         32.20843       18.38517      -22.04246
C         33.20154       19.28461      -22.58803
H         34.16860       18.75302      -22.70794
H         32.87213       19.65309      -23.58373
H         33.33313       20.15838      -21.91518
H         31.39000       18.21356      -22.63355
Ca        32.57473        9.05917      -21.10706
O         31.62986        9.59728      -24.06836
H         31.55342        9.06916      -24.90068
H         30.83359       10.18416      -24.08603
O         29.63371        7.52323      -22.55215
H         28.77963        7.31276      -22.09750
H         29.36216        7.86191      -23.44175

Ca 1.0



