%chk=apoCaM-CA-Ng.loop3.water6.frame460.chk
%nprocshared=20
%mem=10GB
%nosave
#b3lyp/svp scf=(tight,noincore,xqc) Test 
#IOP(5/87=12) Density=Current Pop=(MK,readradii) iop(6/33=2) iop(6/42=6)

apoCaM-CA-Ng.loop3.water6.frame460 

   0  1 
C         54.32274       36.74034       95.48848
C         53.73653       35.36192       95.39826
O         52.98802       34.97208       96.28105
H         55.43111       36.66821       95.52357
H         54.02547       37.33487       94.59980
H         53.97277       37.26204       96.40465
N         54.06787       34.55300       94.35022
C         53.58953       33.18466       94.12699
C         54.13179       32.16607       95.14445
O         53.95280       30.97607       94.93201
C         52.04237       33.16965       94.03040
C         51.43614       31.92217       93.43705
O         50.09670       31.83033       93.33897
O         52.12797       31.01312       93.00726
H         54.69685       34.94467       93.63140
H         54.00035       32.88514       93.13612
H         51.71903       34.01022       93.37910
H         51.60993       33.32752       95.04060
N         54.81455       32.54940       96.25957
C         55.40377       31.64185       97.23284
C         54.71072       31.75866       98.58140
O         55.26241       31.26620       99.55651
C         56.93032       31.91555       97.32652
C         57.31609       33.36185       97.71233
C         58.83961       33.55494       97.67960
C         59.26145       35.02867       97.83164
N         58.94046       35.57990       99.14794
H         54.93118       33.54051       96.46121
H         55.29681       30.57954       96.92077
H         57.36724       31.69419       96.32841
H         57.38625       31.20906       98.05505
H         56.90966       33.60787       98.71630
H         56.90053       34.07019       96.97029
H         59.20565       33.22456       96.68278
H         59.32838       32.92658       98.45523
H         58.77335       35.64003       97.03910
H         60.36094       35.09392       97.67645
H         59.42733       35.03122       99.89292
H         59.27572       36.57001       99.18641
H         57.90943       35.57771       99.31333
N         53.45780       32.29865       98.70650
C         52.77575       32.40281       99.99294
C         51.73270       31.30272      100.13797
O         51.40023       30.65327       99.15543
C         52.15993       33.81332      100.11570
C         51.63668       34.10440      101.48851
O         50.33794       34.39079      101.67891
O         52.39695       34.10539      102.44321
H         52.94498       32.60270       97.86486
H         53.51898       32.25402      100.80577
H         51.34502       33.92420       99.36350
H         52.93516       34.57724       99.89070
N         51.23517       30.98104      101.36982
C         50.27650       29.90551      101.58381
C         48.86398       30.26578      101.16845
O         48.00300       29.40050      101.23494
H         51.60299       31.46671      102.20055
H         50.23551       29.65968      102.66622
H         50.62495       28.99643      101.04561
N         48.54327       31.52293      100.75536
C         47.21807       31.93801      100.31987
C         47.26647       32.35809       98.85257
O         46.26870       32.85480       98.35275
C         46.74324       33.10036      101.22087
C         46.59592       32.67524      102.66569
N         45.67084       31.75704      103.03120
O         47.30924       33.17801      103.51929
H         49.27278       32.24743      100.72971
H         46.47648       31.11310      100.39770
H         45.75782       33.48505      100.87883
H         47.47835       33.93222      101.14591
H         45.04361       31.33023      102.33500
H         45.57007       31.48361      104.02070
N         48.37706       32.14188       98.08126
C         48.47408       32.49885       96.67597
C         48.67948       33.98107       96.42850
O         48.79929       34.35161       95.26888
H         49.18366       31.64147       98.47186
H         47.58197       32.11811       96.13283
H         49.36775       31.99304       96.25045
N         48.74070       34.89027       97.44271
C         48.94840       36.32004       97.21645
C         48.47378       37.12137       98.41285
O         48.48215       36.62031       99.52958
C         50.43421       36.61520       96.93214
C         50.70935       38.08911       96.72951
C         50.21102       38.76454       95.60283
C         51.45789       38.80435       97.68087
C         50.45440       40.13232       95.43429
C         51.69157       40.17208       97.51505
C         51.18946       40.84157       96.39061
O         51.39996       42.16303       96.22321
H         48.60697       34.55828       98.40673
H         48.30985       36.62959       96.35863
H         50.77031       36.06085       96.03272
H         51.01591       36.24319       97.80506
H         49.63442       38.23276       94.85678
H         51.84692       38.30874       98.56156
H         50.06437       40.64407       94.56351
H         52.25714       40.71151       98.26462
H         51.88828       42.69254       96.87008
N         47.96566       38.37224       98.22664
C         47.33318       39.12562       99.30051
C         46.18234       38.28144       99.81309
O         46.13980       38.01234      101.00299
C         46.85582       40.53101       98.81808
C         48.01482       41.41172       98.26475
C         46.11713       41.28882       99.94057
C         49.10398       41.78182       99.28036
H         47.96231       38.76072       97.27244
H         48.06015       39.28237      100.12778
H         46.13401       40.38284       97.98414
H         47.58467       42.35731       97.86878
H         48.50031       40.90353       97.41003
H         45.76908       42.27688       99.57123
H         45.22750       40.73183      100.28550
H         46.76828       41.43970      100.82544
H         48.68882       42.37636      100.11907
H         49.60903       40.87949       99.67969
H         49.87168       42.40924       98.78092
N         45.27451       37.73883       98.94573
C         44.23742       36.81281       99.39100
C         43.21057       37.50085      100.26824
O         42.53193       36.81352      101.01770
C         43.53428       36.14400       98.20172
O         44.46661       35.48098       97.38966
H         45.37505       37.93350       97.93758
H         44.73914       36.01135       99.98140
H         43.01337       36.90701       97.58601
H         42.75636       35.42964       98.56176
H         44.52867       34.55073       97.72625
N         43.05365       38.85910      100.23352
C         42.15787       39.63892      101.08271
C         42.58372       39.67028      102.55303
O         41.95626       40.38986      103.31767
C         40.69942       39.19183      100.90444
H         43.59255       39.39548       99.54005
H         42.21719       40.69377      100.73120
H         40.42627       39.22509       99.82740
H         40.53158       38.16319      101.28113
H         40.01827       39.87248      101.45623
N         43.64316       38.94761      103.02368
C         44.10892       38.98986      104.40289
C         44.73520       40.32704      104.71610
O         45.63775       40.74218      104.00120
C         45.17363       37.91566      104.63617
H         44.15152       38.32682      102.39041
H         43.26440       38.75859      105.08905
H         44.75075       36.91245      104.41862
H         46.05205       38.09763      103.98163
H         45.51092       37.93226      105.69484
N         44.33435       41.03298      105.80839
C         44.93134       42.29341      106.23230
C         44.75115       43.33766      105.14393
O         45.71854       43.96264      104.72863
C         46.42414       42.11020      106.62407
C         46.64152       41.01294      107.67638
C         48.10482       40.86529      107.98929
O         48.79462       41.89913      108.50840
O         48.67601       39.80771      107.77410
H         43.57205       40.65272      106.39010
H         44.38045       42.64008      107.13529
H         46.81286       43.07582      107.01717
H         47.02119       41.84598      105.72513
H         46.25901       40.04398      107.28678
H         46.09224       41.26104      108.60887
N         43.51710       43.54261      104.60564
C         43.26209       44.47797      103.52956
H         42.48217       45.19978      103.84663
H         44.16993       45.04620      103.23637
H         42.89988       43.91946      102.64063
H         42.72032       42.98480      104.94843
Ca        49.69925       34.87710      103.78268
O         47.76490       35.01363      106.07654
H         48.15490       35.08435      106.98368
H         46.78574       35.02758      106.22069
O         52.07490       35.64784      105.66450
H         51.44406       35.91635      106.37906
H         52.12584       36.43666      105.06811
O         49.96033       32.64482      105.82627
H         50.36664       33.42110      106.28757
H         50.72057       32.03604      105.64918
O         50.40653       37.59648      102.08397
H         50.69072       38.19553      101.34963
H         49.83923       36.91962      101.64074
O         47.09689       35.97764      103.13165
H         46.20933       35.71360      102.78224
H         47.58167       36.32784      102.34446
O         49.16987       37.65966      105.01840
H         49.87527       37.83143      105.69126
H         49.19378       38.45219      104.42586

Ca 1.0



