%chk=apoCaM-CA-Ng.loop2.water4.frame1443.chk
%nprocshared=20
%mem=10GB
%nosave
#b3lyp/svp scf=(tight,noincore,xqc) Test 
#IOP(5/87=12) Density=Current Pop=(MK,readradii) iop(6/33=2) iop(6/42=6)

apoCaM-CA-Ng.loop2.water4.frame1443 

   -2  1 
C         51.84804      118.42450       15.53715
C         52.38140      117.37602       14.59632
O         53.17042      116.55314       15.03684
H         50.74299      118.33194       15.60986
H         52.27068      118.29115       16.55582
H         52.11774      119.43946       15.17867
N         51.99937      117.29275       13.28774
C         51.06105      118.20994       12.64245
C         51.64553      118.91072       11.41889
O         50.96246      119.77799       10.89121
C         49.74344      117.47548       12.31118
C         49.85207      116.32996       11.34042
O         50.91651      116.02077       10.83199
O         48.74416      115.63129       11.03032
H         52.38117      116.50945       12.73693
H         50.78434      119.02359       13.34147
H         49.01418      118.20538       11.89853
H         49.32520      117.07683       13.26058
N         52.88082      118.61499       10.90959
C         53.46916      119.33751        9.78510
C         53.65651      118.46802        8.55028
O         54.15200      118.99665        7.56379
C         54.81163      119.93142       10.22766
H         53.44786      117.86677       11.33236
H         52.81739      120.18255        9.47358
H         55.51886      119.12402       10.51641
H         55.26712      120.52706        9.40726
H         54.66041      120.60379       11.09866
N         53.27379      117.15508        8.50012
C         53.44518      116.32919        7.30534
C         52.10845      115.87147        6.73352
O         51.06599      116.09923        7.33105
C         54.41014      115.16101        7.60380
C         53.95693      114.27169        8.72920
O         52.92564      113.62886        8.63422
O         54.70583      114.16490        9.84389
H         52.84671      116.71664        9.32623
H         53.91633      116.92759        6.49586
H         55.39476      115.59732        7.88050
H         54.56262      114.54297        6.69351
N         52.08554      115.28499        5.50315
C         50.88047      114.90321        4.78096
C         50.19662      113.67331        5.32883
O         50.58193      113.16517        6.37088
H         52.98001      115.17399        5.00189
H         51.18902      114.64049        3.74579
H         50.17317      115.75825        4.71457
N         49.20738      113.08863        4.59120
C         48.56716      111.82957        4.94997
C         49.19616      110.71404        4.14391
O         49.76761      109.81465        4.74629
C         47.04669      111.88760        4.69617
C         46.35266      112.87972        5.59073
N         45.69046      113.94006        5.07359
O         46.37120      112.71249        6.79955
H         48.97969      113.50015        3.67237
H         48.74122      111.59363        6.02472
H         46.59910      110.88752        4.88720
H         46.86022      112.14071        3.62992
H         45.65669      114.10047        4.05664
H         45.20884      114.60604        5.69581
N         49.14672      110.69759        2.77926
C         49.77754      109.64287        2.00022
C         51.28787      109.68353        2.13198
O         51.80312      110.59897        2.75999
H         48.64317      111.44260        2.27520
H         49.52627      109.77170        0.92488
H         49.37984      108.66446        2.34437
N         52.10372      108.74878        1.56937
C         51.66896      107.58045        0.80854
C         52.11593      106.29785        1.49918
O         51.28786      105.41340        1.67028
C         52.20829      107.63591       -0.63936
C         51.61250      108.81837       -1.41219
O         53.60958      107.72224       -0.64160
H         53.11820      108.88438        1.69521
H         50.56231      107.53499        0.71817
H         51.88500      106.69666       -1.14999
H         53.91512      107.40308       -1.53099
H         51.90072      109.78332       -0.94547
H         51.97802      108.80576       -2.46092
H         50.50369      108.74304       -1.43276
N         53.39899      106.12901        1.94006
C         53.89403      104.89154        2.53781
C         53.96992      105.05431        4.05509
O         54.54866      106.04157        4.48784
C         55.29385      104.54390        1.95381
C         55.30307      104.48239        0.40327
C         55.84830      103.24020        2.56216
C         54.38901      103.41978       -0.21320
H         54.06253      106.91333        1.86752
H         53.21242      104.07855        2.26172
H         55.99733      105.35938        2.23742
H         56.34335      104.29096        0.06140
H         55.00541      105.47117       -0.00372
H         55.18123      102.37932        2.35142
H         56.85805      103.02614        2.15318
H         55.95067      103.33101        3.66400
H         54.47832      103.46274       -1.31887
H         54.68156      102.40173        0.11384
H         53.32705      103.60368        0.04732
N         53.43352      104.17111        4.95776
C         52.80527      102.88268        4.65510
C         53.52365      101.73508        5.36438
O         54.46485      101.96039        6.10934
C         51.29419      102.95388        4.96141
C         50.98101      103.31074        6.38707
O         51.36741      102.50396        7.39284
O         50.35494      104.32875        6.63711
H         53.49822      104.42495        5.95666
H         52.88806      102.62148        3.59172
H         50.80184      101.98966        4.71668
H         50.85127      103.72429        4.29056
N         53.13351      100.45215        5.12046
C         53.78896       99.25932        5.66031
C         55.21034       99.14907        5.12219
O         55.36122       99.23656        3.91277
C         52.95864       98.01395        5.23850
C         53.49390       96.68231        5.73038
C         54.66774       96.12339        5.18804
C         52.79711       95.96299        6.71820
C         55.13900       94.88632        5.63537
C         53.27431       94.72592        7.16438
C         54.44529       94.18929        6.62491
H         52.33008      100.31492        4.48896
H         53.76808       99.29246        6.76714
H         52.85393       97.96086        4.13245
H         51.93793       98.16754        5.65425
H         55.21845       96.63001        4.40899
H         51.88570       96.35892        7.14773
H         56.04198       94.46663        5.21030
H         52.73410       94.18102        7.92737
H         54.81229       93.23084        6.96860
N         56.29523       98.85860        5.91754
C         56.26462       98.58512        7.34822
C         56.02040       99.82307        8.17905
O         55.12317       99.83122        9.00753
C         57.66278       98.01260        7.65320
C         58.04835       97.39760        6.32207
C         57.58497       98.48987        5.36644
H         55.51402       97.78611        7.54360
H         58.39813       98.83012        7.82704
H         57.69965       97.33429        8.53257
H         59.12211       97.12881        6.23138
H         57.43086       96.48828        6.15766
H         58.26980       99.36406        5.44520
H         57.55186       98.13387        4.31505
N         56.81587      100.91572        7.99801
C         56.70357      102.12741        8.79423
C         57.16400      101.81833       10.21768
O         58.32822      101.47079       10.36291
C         57.59669      103.24219        8.19531
C         57.14646      103.64228        6.77692
C         58.05803      104.67530        6.18408
O         59.23730      104.41951        5.99723
O         57.57370      105.88008        5.82872
H         57.53379      100.87553        7.26072
H         55.66614      102.49345        8.73040
H         58.65243      102.88948        8.16411
H         57.54861      104.14332        8.84604
H         56.11167      104.04488        6.82479
H         57.14806      102.76583        6.09613
N         56.37537      101.88748       11.33255
C         54.96631      102.22221       11.38827
H         54.41490      101.37020       11.83908
H         54.82831      103.11342       12.03447
H         54.50268      102.43046       10.41331
H         56.81430      101.66127       12.23921
Ca        50.11518      113.89347        9.09403
O         50.80381      110.95469        8.71269
H         51.57034      110.81648        9.32383
H         51.15454      110.72490        7.81586
O         47.90823      115.49440        7.73787
H         47.53829      115.72834        6.85001
H         47.19155      114.97181        8.17794
O         50.60958      112.79002       11.92664
H         49.90474      112.16792       11.61552
H         51.44141      112.44995       11.51075
O         47.83103      112.07683        9.47425
H         46.93825      111.66409        9.36780
H         48.17003      112.17447        8.54928

Ca 1.0



