%chk=apoCaM-CA-Ng.loop2.water3.frame1198.chk
%nprocshared=20
%mem=10GB
%nosave
#b3lyp/svp scf=(tight,noincore,xqc) Test 
#IOP(5/87=12) Density=Current Pop=(MK,readradii) iop(6/33=2) iop(6/42=6)

apoCaM-CA-Ng.loop2.water3.frame1198 

   -2  1 
C         14.12342        7.68788      112.89189
C         12.80669        7.10296      112.45308
O         11.96958        7.85856      111.98101
H         14.93940        7.26280      112.27040
H         14.12760        8.79000      112.74688
H         14.31950        7.48247      113.96265
N         12.52616        5.76817      112.52813
C         13.40955        4.76050      113.11716
C         12.58979        3.73852      113.92011
O         11.39269        3.93091      114.09075
C         14.33232        4.16415      112.02769
C         13.61178        3.28325      111.07424
O         13.34538        2.13842      111.39914
O         13.14886        3.76181      109.90867
H         11.62978        5.44970      112.12509
H         14.10564        5.24220      113.83223
H         15.15865        3.57578      112.47990
H         14.80785        4.99610      111.46807
N         13.17853        2.62737      114.45205
C         12.50764        1.65294      115.31547
C         11.34233        0.87213      114.68477
O         10.75331        0.08269      115.41032
C         12.12123        2.31335      116.64952
H         14.18164        2.47531      114.27621
H         13.25522        0.87593      115.58800
H         13.03369        2.74332      117.11964
H         11.37096        3.11888      116.52457
H         11.71783        1.55462      117.35477
N         10.98047        0.96838      113.36607
C          9.94366        0.12190      112.75432
C         10.51646       -0.72752      111.61584
O         11.67798       -0.57681      111.26042
C          8.74930        0.98671      112.28397
C          9.16909        1.96301      111.22898
O          9.62990        1.49845      110.05405
O          9.17008        3.16247      111.45766
H         11.46762        1.63339      112.75830
H          9.54592       -0.59279      113.50486
H          8.34633        1.52860      113.16718
H          7.93631        0.34971      111.87558
N          9.73426       -1.67481      111.01941
C         10.18934       -2.57026      109.96304
C         10.41995       -1.88601      108.63388
O         10.24231       -0.68264      108.52025
H          8.77716       -1.81499      111.37431
H          9.40354       -3.33632      109.78848
H         11.11345       -3.09415      110.29030
N         10.81764       -2.63291      107.56314
C         11.07772       -2.07948      106.23666
C         10.21337       -2.74584      105.18025
O          9.48951       -3.68702      105.47770
C         12.56639       -2.29985      105.88937
C         13.50106       -1.59609      106.84174
N         14.74107       -2.08705      107.06713
O         13.15095       -0.56497      107.39643
H         10.96629       -3.64543      107.69976
H         10.85182       -0.99081      106.20864
H         12.80500       -1.94240      104.86575
H         12.77837       -3.39290      105.90632
H         15.05901       -2.95121      106.60439
H         15.38515       -1.60294      107.70970
N         10.27345       -2.29950      103.89287
C          9.59112       -2.92816      102.77631
C          8.07837       -2.90528      102.87194
O          7.53736       -2.41101      103.85038
H         10.88291       -1.49730      103.67378
H          9.93170       -3.98359      102.70688
H          9.89333       -2.39862      101.85227
N          7.30217       -3.45975      101.89472
C          7.83912       -3.99494      100.64458
C          8.26506       -2.83368       99.75789
O          9.42534       -2.75950       99.37982
C          6.82707       -4.93537       99.93961
C          6.51128       -6.15372      100.81882
O          5.63414       -4.26366       99.62850
H          6.28052       -3.47926      102.04271
H          8.71953       -4.64064      100.85909
H          7.31638       -5.30044       99.00458
H          5.24999       -4.71013       98.82901
H          7.44513       -6.70048      101.07182
H          6.01436       -5.84546      101.76299
H          5.83555       -6.84882      100.27844
N          7.36369       -1.86477       99.43122
C          7.67557       -0.64704       98.68363
C          7.33264        0.58754       99.53513
O          6.70253        0.41823      100.56913
C          6.89487       -0.65353       97.32236
C          5.39263       -1.07118       97.39537
C          7.58926       -1.59739       96.32677
C          4.50125       -0.21614       98.29160
H          6.39936       -1.97437       99.77164
H          8.76579       -0.60098       98.48268
H          6.95449        0.35616       96.87235
H          5.29803       -2.13179       97.71855
H          4.97023       -1.00714       96.36858
H          8.63787       -1.27361       96.15782
H          7.58823       -2.64433       96.69807
H          7.07036       -1.57013       95.34298
H          3.44701       -0.54769       98.17720
H          4.75529       -0.34923       99.35791
H          4.57404        0.85313       98.01008
N          7.67446        1.87576       99.20571
C          8.60701        2.29203       98.15872
C          7.91370        2.88593       96.94556
O          8.59560        3.12771       95.95969
C          9.54923        3.38049       98.72728
C         10.32178        2.92440       99.92882
O         10.13203        3.52928      101.11806
O         11.13684        2.02223       99.83206
H          7.30029        2.62508       99.81069
H          9.19749        1.42286       97.80392
H          8.92490        4.25289       99.02740
H         10.26590        3.73066       97.95307
N          6.57315        3.13668       96.92824
C          5.87875        3.61870       95.73869
C          4.67938        4.48660       96.13634
O          3.98658        4.09422       97.06393
C          5.39760        2.40163       94.93103
C          4.82517        2.83870       93.60731
C          3.44491        3.05413       93.46917
C          5.67598        3.08845       92.51392
C          2.92308        3.51591       92.25758
C          5.14745        3.54057       91.30039
C          3.77240        3.75692       91.17379
H          6.01327        2.90103       97.75757
H          6.58538        4.15676       95.08566
H          4.64954        1.83323       95.52375
H          6.24760        1.71075       94.73387
H          2.77948        2.88828       94.30677
H          6.74563        2.94078       92.60342
H          1.86052        3.69508       92.16238
H          5.80412        3.73277       90.46131
H          3.36551        4.11715       90.23794
N          4.29719        5.62416       95.46257
C          4.92052        6.19756       94.27645
C          6.34181        6.59462       94.55681
O          7.23441        6.19957       93.82026
C          4.04394        7.41061       93.93179
C          2.69597        6.98974       94.48313
C          3.09604        6.35637       95.80633
H          4.85380        5.47974       93.43942
H          4.35977        8.29914       94.52005
H          4.04488        7.67926       92.85217
H          1.94949        7.80730       94.57201
H          2.28221        6.18722       93.83097
H          3.36279        7.13519       96.55560
H          2.27276        5.71678       96.18920
N          6.61408        7.30919       95.68560
C          7.95832        7.59642       96.15203
C          8.20006        9.09407       96.22138
O          7.23072        9.83775       96.27926
C          8.24105        6.86555       97.49496
C          7.61664        7.38571       98.81743
C          6.12505        7.25872       98.99922
O          5.35595        8.00882       98.42473
O          5.63689        6.40298       99.91868
H          5.82133        7.61318       96.25196
H          8.65581        7.17516       95.40186
H          9.33524        6.91366       97.66705
H          7.98529        5.79101       97.37050
H          7.92132        8.43608       99.00766
H          8.07443        6.76479       99.61916
N          9.44351        9.65514       96.16020
C         10.69568        8.93614       96.02009
H         11.37937        9.22615       96.84321
H         10.59185        7.83787       96.03924
H         11.16342        9.21219       95.05147
H          9.50832       10.68464       96.17326
Ca        11.49982        2.42798      109.26086
O          9.46701        2.53968      107.45012
H          8.89312        2.47709      106.64939
H          9.08993        3.28467      107.98370
O         14.77403        1.67835      108.52544
H         15.31990        1.09297      107.94388
H         15.43000        2.11022      109.12795
O         12.61300        2.76229      106.49516
H         11.87151        2.89905      105.85364
H         13.43148        2.77400      105.93866

Ca 1.0



