%chk=apoCaM-CA-Ng.loop4.water2.frame97.chk
%nprocshared=20
%mem=10GB
%nosave
#b3lyp/svp scf=(tight,noincore,xqc) Test 
#IOP(5/87=12) Density=Current Pop=(MK,readradii) iop(6/33=2) iop(6/42=6)

apoCaM-CA-Ng.loop4.water2.frame97 

   -3  1 
C         36.48071       55.42452       92.44253
C         36.04150       56.80040       92.84558
O         36.26040       57.16399       93.98618
H         37.57744       55.32911       92.58508
H         35.96595       54.67414       93.07935
H         36.23859       55.21299       91.38038
N         35.42515       57.62560       91.95434
C         34.94177       58.97037       92.25057
C         36.03028       59.93383       92.67823
O         35.90243       60.56263       93.71380
C         33.66289       58.99867       93.13213
C         33.57529       58.21817       94.43067
O         34.38166       58.38630       95.50529
O         32.66026       57.41710       94.54148
H         35.29639       57.28848       90.98788
H         34.59103       59.41079       91.28808
H         32.84591       58.60317       92.48533
H         33.39978       60.06010       93.33347
N         37.06714       60.18853       91.82709
C         38.03205       61.28279       91.95284
C         37.28685       62.60808       91.80710
O         37.27691       63.14484       90.70776
C         38.95143       61.17260       93.20708
C         39.97182       62.34011       93.31669
C         39.66712       59.81195       93.24478
C         40.96451       62.45956       92.15604
H         37.12514       59.62493       90.96433
H         38.68962       61.19800       91.05844
H         38.32533       61.21819       94.11881
H         40.55675       62.21513       94.25310
H         39.42223       63.30139       93.39758
H         40.29996       59.73726       94.15532
H         38.92558       58.98622       93.28066
H         40.30471       59.66479       92.34899
H         41.58584       61.54616       92.06262
H         40.44007       62.65325       91.19858
H         41.64644       63.31508       92.34760
N         36.61228       63.17706       92.84830
C         35.72391       64.32256       92.70125
C         36.43495       65.63364       93.05211
O         36.46977       66.48785       92.17737
C         34.38672       64.04475       93.44183
C         33.38787       65.15339       93.27971
O         32.90526       65.78836       94.36559
O         32.98877       65.46669       92.16997
H         36.69752       62.76302       93.78278
H         35.43031       64.41562       91.63021
H         34.52616       63.86675       94.52045
H         33.94139       63.10991       93.03623
N         37.05060       65.91512       94.24017
C         37.18939       64.98400       95.34289
C         37.33887       65.66728       96.69017
O         37.48433       66.88022       96.72626
H         37.53767       66.82256       94.30868
H         38.08501       64.35605       95.15958
H         36.32182       64.34342       95.38430
N         37.34440       64.97641       97.87267
C         37.00724       63.56494       98.05591
C         37.79848       62.65578       97.12519
O         37.18928       61.98710       96.30344
C         35.46823       63.38928       97.94619
C         35.02992       61.98897       98.27252
O         34.41976       61.32834       97.44652
O         35.29834       61.46221       99.48222
H         37.54129       65.51068       98.73365
H         37.25101       63.28131       99.10409
H         35.09288       63.65602       96.94262
H         34.97686       64.07437       98.66947
N         39.15451       62.54889       97.15702
C         40.03714       63.20785       98.10116
C         41.07122       64.03049       97.38607
O         41.01237       64.17990       96.17298
H         39.59842       61.91998       96.47096
H         40.56501       62.42648       98.68371
H         39.49859       63.85014       98.82418
N         42.07626       64.59597       98.10382
C         43.10034       65.43024       97.49198
C         44.24758       64.60569       96.92165
O         45.16088       65.20576       96.36775
C         43.60223       66.48092       98.51235
C         42.45502       67.30970       99.12857
C         41.61176       67.98760       98.07844
N         40.29833       67.68465       97.94955
O         42.12071       68.80781       97.32960
H         42.10457       64.43663       99.12319
H         42.64968       65.99633       96.64781
H         44.31374       67.16845       98.00470
H         44.14565       65.97755       99.34111
H         42.87712       68.07769       99.81095
H         41.81539       66.64409       99.74650
H         39.85015       66.98786       98.56348
H         39.72753       68.14229       97.22446
N         44.28268       63.24058       97.01369
C         45.38673       62.42315       96.51063
C         46.16172       61.77167       97.64903
O         47.20705       61.19763       97.38482
C         44.89713       61.37753       95.47441
C         44.25692       62.07506       94.26657
C         43.91710       60.35697       96.07776
H         43.51031       62.75150       97.48696
H         46.12940       63.07555       95.99835
H         45.78504       60.81634       95.10601
H         43.35564       62.64913       94.57092
H         44.98442       62.77336       93.79995
H         43.95867       61.32523       93.50387
H         44.38338       59.82561       96.93413
H         42.98511       60.84725       96.42269
H         43.64148       59.59826       95.31550
N         45.74852       61.89399       98.94559
C         46.56174       61.51870      100.08752
C         45.82956       60.58302      101.04562
O         46.36157       59.50278      101.27255
C         47.15143       62.80256      100.73155
C         46.22758       63.96625      101.04885
N         46.75452       65.12250      101.50889
O         45.02293       63.90173      100.87270
H         44.86408       62.36356       99.14912
H         47.46566       60.95859       99.75168
H         47.87379       63.21061       99.98957
H         47.73102       62.52223      101.63729
H         47.76993       65.21780      101.65281
H         46.14431       65.92857      101.71083
N         44.64546       60.89810      101.66087
C         44.01856       60.01671      102.65055
C         42.61289       59.59989      102.24427
O         42.03462       60.20557      101.35312
C         43.93168       60.70741      104.03170
C         45.23256       61.31836      104.49506
C         45.61326       62.58451      104.02197
C         46.05346       60.66345      105.42556
C         46.79742       63.18223      104.45738
C         47.24393       61.26083      105.85840
C         47.61874       62.52367      105.37410
O         48.75756       63.11616      105.78603
H         44.18285       61.79023      101.45365
H         44.62739       59.09351      102.76635
H         43.58054       59.95910      104.77491
H         43.16720       61.51677      104.01745
H         44.98011       63.11626      103.32773
H         45.77555       59.69133      105.81140
H         47.07378       64.16115      104.08693
H         47.87162       60.74437      106.57264
H         49.35287       62.70049      106.42534
N         41.99844       58.56369      102.89457
C         40.61074       58.13361      102.70212
C         40.25619       57.67734      101.28593
O         39.09361       57.36211      101.06940
C         39.62533       59.21735      103.20195
C         39.81009       59.49680      104.70366
C         38.71961       60.38418      105.23199
O         38.57224       61.51347      104.79380
O         37.89490       59.93114      106.19690
H         42.54003       58.05590      103.61127
H         40.43233       57.24475      103.34864
H         38.58979       58.83298      103.06617
H         39.72413       60.15625      102.61547
H         40.79860       59.96733      104.89218
H         39.76751       58.53464      105.26038
N         41.17616       57.57592      100.28425
C         40.83715       57.17503       98.91987
C         41.52160       55.87514       98.52494
O         41.34091       55.45887       97.38834
C         41.24469       58.30792       97.95546
C         40.46731       59.60482       98.21225
C         39.01194       59.48469       97.85049
O         38.65946       59.27745       96.56610
O         38.14867       59.62938       98.70124
H         42.16461       57.78907      100.47411
H         39.74562       56.99525       98.80530
H         41.08427       58.00859       96.89632
H         42.33043       58.50831       98.09083
H         40.91067       60.39996       97.58405
H         40.57626       59.90901       99.27302
N         42.29230       55.16038       99.39727
C         42.94376       53.91510       99.04265
H         44.03804       54.01850       99.19482
H         42.56319       53.10261       99.69618
H         42.76529       53.62496       97.98583
H         42.42742       55.48682      100.36398
Ca        36.49862       59.10296       95.91274
O         35.72069       56.01463       96.94755
H         35.19058       55.20386       96.74348
H         36.53864       55.92309       96.39751
O         35.15831       58.53113       98.76899
H         35.06998       57.63319       99.17532
H         34.23804       58.89617       98.77427

Ca 1.0



