%chk=apoCaM-CA-Ng.loop4.water5.frame590.chk
%nprocshared=20
%mem=10GB
%nosave
#b3lyp/svp scf=(tight,noincore,xqc) Test 
#IOP(5/87=12) Density=Current Pop=(MK,readradii) iop(6/33=2) iop(6/42=6)

apoCaM-CA-Ng.loop4.water5.frame590 

   -3  1 
C         41.59822      126.25053      -14.30098
C         41.34874      126.56292      -15.74404
O         41.25033      125.64072      -16.53922
H         42.55123      126.71688      -13.97649
H         40.76298      126.64702      -13.68683
H         41.66409      125.15196      -14.14386
N         41.22655      127.85988      -16.15345
C         40.95344      128.26049      -17.52985
C         39.62009      127.67654      -17.96071
O         39.59707      126.87864      -18.89004
C         42.09664      127.83363      -18.49844
C         43.48826      128.36198      -18.14778
O         43.48653      129.75486      -18.02256
O         43.94890      127.82170      -16.94196
H         41.31407      128.60724      -15.44814
H         40.87543      129.36871      -17.57607
H         41.84590      128.21018      -19.51430
H         42.17031      126.72849      -18.57118
N         38.45902      128.01683      -17.31811
C         37.19491      127.34035      -17.60907
C         36.28932      128.21356      -18.45447
O         36.31469      129.42006      -18.25122
C         36.47330      126.81735      -16.31461
C         35.72812      127.88852      -15.45997
C         37.47434      126.07011      -15.41510
C         34.35099      128.31074      -16.00687
H         38.48033      128.74727      -16.59055
H         37.45862      126.43869      -18.16868
H         35.71054      126.06678      -16.61433
H         36.37835      128.76854      -15.27151
H         35.48190      127.43578      -14.47447
H         37.96518      125.24880      -15.97098
H         38.25091      126.76006      -15.02229
H         36.94724      125.61629      -14.54802
H         33.69998      127.41850      -16.12961
H         33.86244      128.99592      -15.28314
H         34.37516      128.84675      -16.96671
N         35.37392      127.72226      -19.34603
C         35.27617      126.33792      -19.81095
C         35.37591      126.24092      -21.32696
O         35.49386      125.12660      -21.80754
C         33.98546      125.67087      -19.29522
C         32.72887      126.36368      -19.74372
O         32.45040      126.43878      -20.92978
O         31.88949      126.88551      -18.82932
H         34.69823      128.39948      -19.73026
H         36.09951      125.71937      -19.43251
H         34.01310      125.66703      -18.18562
H         33.95134      124.61043      -19.63051
N         35.32510      127.33588      -22.14567
C         35.31533      127.26466      -23.59517
C         34.06782      126.58033      -24.10773
O         33.10352      127.26089      -24.42816
H         35.26667      128.28216      -21.75192
H         36.23408      126.77359      -23.98220
H         35.31648      128.30361      -23.99455
N         34.05804      125.23342      -24.29606
C         32.94851      124.49511      -24.88322
C         32.45994      123.34541      -24.00278
O         31.56235      122.64145      -24.44404
C         33.36542      124.03543      -26.30681
C         34.77028      123.48772      -26.43569
O         35.58432      124.07739      -27.12882
O         35.14962      122.36552      -25.80817
H         34.91613      124.70403      -24.08535
H         32.05558      125.14435      -25.02278
H         33.32885      124.94083      -26.95108
H         32.62739      123.31408      -26.71838
N         32.95267      123.09261      -22.75075
C         32.50663      121.96113      -21.94350
C         32.92193      120.61735      -22.52506
O         32.53252      119.59855      -21.97393
H         33.65179      123.71601      -22.33697
H         31.40045      122.00694      -21.83864
H         32.94785      122.03190      -20.92492
N         33.72938      120.54334      -23.62528
C         34.17115      119.33316      -24.30979
C         35.16263      118.50197      -23.50715
O         35.63253      117.50726      -24.04114
C         32.97132      118.50541      -24.82033
C         32.06181      119.34376      -25.73600
C         30.91381      118.52891      -26.26857
N         30.74656      118.35724      -27.60085
O         30.11696      118.02799      -25.48910
H         34.05977      121.41305      -24.03818
H         34.74283      119.65376      -25.21051
H         32.38393      118.10696      -23.96723
H         33.35583      117.64141      -25.40555
H         32.66550      119.74858      -26.57782
H         31.63956      120.19887      -25.17177
H         31.40220      118.77640      -28.27648
H         29.95457      117.80446      -27.96074
N         35.57086      118.85932      -22.25402
C         36.57021      118.11963      -21.48803
C         37.76642      118.99300      -21.11993
O         38.66988      118.47311      -20.47804
C         35.92758      117.51591      -20.20605
C         35.32643      118.58346      -19.27206
C         34.86058      116.47529      -20.57040
H         35.17373      119.69528      -21.81132
H         36.97695      117.27457      -22.08628
H         36.72293      116.97996      -19.64105
H         34.94571      118.10489      -18.34533
H         36.09457      119.32995      -18.98015
H         34.47656      119.11230      -19.75172
H         34.02356      116.94083      -21.13282
H         35.30987      115.67339      -21.19464
H         34.45400      116.00623      -19.64935
N         37.84361      120.31694      -21.45485
C         38.91713      121.19369      -21.00054
C         39.65385      121.78275      -22.19706
O         39.07027      121.90008      -23.26589
C         38.27588      122.25336      -20.07929
C         39.21238      123.11391      -19.26844
N         38.69400      123.97709      -18.36972
O         40.42360      123.02246      -19.37751
H         37.09354      120.75600      -22.00737
H         39.64617      120.61672      -20.38955
H         37.66446      121.70173      -19.33077
H         37.59144      122.90132      -20.66991
H         37.67449      124.05284      -18.24267
H         39.31382      124.55413      -17.78707
N         40.97884      122.08670      -22.10087
C         41.81193      122.53186      -23.21531
C         43.22749      122.71220      -22.70463
O         43.42585      123.55539      -21.84259
C         41.34099      123.87027      -23.83380
C         42.16882      124.17585      -25.06083
C         43.33817      124.95152      -24.97169
C         41.79784      123.63390      -26.30210
C         44.12449      125.17324      -26.10722
C         42.57937      123.86526      -27.43674
C         43.74639      124.62971      -27.34420
O         44.49767      124.82796      -28.44609
H         41.44077      121.92202      -21.19464
H         41.77793      121.74019      -23.99762
H         41.42274      124.69080      -23.08622
H         40.27450      123.83933      -24.13536
H         43.65196      125.36703      -24.02232
H         40.90458      123.02755      -26.38844
H         45.03012      125.76075      -26.02293
H         42.28098      123.44090      -28.38732
H         45.32022      125.33783      -28.42414
N         44.24964      121.93220      -23.14665
C         45.59112      122.04175      -22.58626
C         46.32340      123.23115      -23.20406
O         46.58337      123.15962      -24.39813
C         46.36280      120.73276      -22.87467
C         47.71114      120.65541      -22.14898
C         48.41042      119.36710      -22.47884
O         48.74202      119.12417      -23.62877
O         48.67689      118.47375      -21.50727
H         44.03900      121.18195      -23.82384
H         45.49049      122.11440      -21.48751
H         46.50913      120.62003      -23.97272
H         45.74513      119.87410      -22.52698
H         47.53018      120.70595      -21.05346
H         48.36622      121.50312      -22.44114
N         46.71116      124.36198      -22.53604
C         46.39553      124.73682      -21.15845
C         46.95755      123.77338      -20.13626
O         48.15649      123.52974      -20.12509
C         46.93095      126.16050      -20.86845
C         46.50966      126.67454      -19.47668
C         47.00282      128.06653      -19.18210
O         47.66576      128.69240      -19.99486
O         46.71399      128.62851      -17.99368
H         47.22964      125.05789      -23.09742
H         45.29671      124.80036      -21.05575
H         46.51775      126.85654      -21.63257
H         48.04075      126.16728      -20.95083
H         46.91116      126.00321      -18.68914
H         45.40075      126.67221      -19.41204
N         46.13391      123.24618      -19.18807
C         46.61892      122.40004      -18.12262
H         47.37889      122.94864      -17.52524
H         45.77820      122.12603      -17.44960
H         47.06467      121.47519      -18.54142
H         45.12996      123.48420      -19.19682
Ca        44.21685      129.79933      -15.87182
O         43.37664      132.65939      -16.53937
H         44.32015      132.73704      -16.24771
H         43.43434      132.41694      -17.49768
O         45.61568      131.64547      -13.86983
H         45.01583      132.34608      -13.51083
H         46.21321      131.41652      -13.11417
O         48.05017      130.36829      -15.57334
H         48.24917      130.72311      -14.67065
H         48.93949      130.22396      -15.98382
O         46.33503      131.67807      -18.21215
H         46.30921      131.52616      -19.19005
H         47.25484      132.00050      -18.03515
O         46.13476      127.98654      -14.10567
H         46.76722      127.47145      -14.66727
H         45.32812      127.41413      -14.05134

Ca 1.0



