%chk=apoCaM-CA-Ng.loop1.water3.frame407.chk
%nprocshared=20
%mem=10GB
%nosave
#b3lyp/svp scf=(tight,noincore,xqc) Test 
#IOP(5/87=12) Density=Current Pop=(MK,readradii) iop(6/33=2) iop(6/42=6)

apoCaM-CA-Ng.loop1.water3.frame407 

   0  1 
C         80.58077       88.16484      -18.85616
C         80.04171       86.98728      -18.09781
O         80.67200       85.93984      -18.07118
H         81.55129       87.92109      -19.33609
H         79.85518       88.46717      -19.64087
H         80.72979       89.01699      -18.15872
N         78.86192       87.10722      -17.43409
C         78.26617       86.04537      -16.62764
C         77.61279       84.94283      -17.46930
O         76.91614       84.12909      -16.88751
C         77.22112       86.64906      -15.65381
C         77.84116       87.61110      -14.66916
O         78.35823       88.64946      -15.04862
O         77.81812       87.32999      -13.35203
H         78.39521       88.02749      -17.46141
H         79.03580       85.58912      -15.97274
H         76.77549       85.82592      -15.05624
H         76.40294       87.15255      -16.21220
N         77.78276       84.81932      -18.81801
C         77.04496       83.85104      -19.62665
C         77.92825       82.74330      -20.18093
O         79.01005       83.05903      -20.65566
C         76.38817       84.58867      -20.80999
C         75.21265       85.46305      -20.36680
C         74.47810       86.02233      -21.58978
C         73.23109       86.80918      -21.17525
N         72.51364       87.29904      -22.35158
H         78.42941       85.44266      -19.31664
H         76.25527       83.37938      -19.02728
H         75.99123       83.84555      -21.52087
H         77.14274       85.18267      -21.37151
H         75.56733       86.28491      -19.70814
H         74.49860       84.83027      -19.79751
H         74.15655       85.17570      -22.23763
H         75.16411       86.67536      -22.17188
H         73.52786       87.66845      -20.53466
H         72.55503       86.14732      -20.58786
H         73.12822       87.93630      -22.90821
H         72.20938       86.49444      -22.94748
H         71.66662       87.82699      -22.04103
N         77.51676       81.43137      -20.29918
C         76.23289       80.84261      -19.87689
C         75.03316       81.63124      -20.38661
O         74.26899       82.14611      -19.58747
C         76.20913       80.56566      -18.35582
C         77.20298       79.50442      -17.97479
O         77.38145       79.23228      -16.79893
O         77.93869       78.88582      -18.91792
H         78.15982       80.79000      -20.78996
H         76.12910       79.83004      -20.32504
H         75.21139       80.18797      -18.04653
H         76.43990       81.49250      -17.79431
N         74.75677       81.75956      -21.71093
C         75.54379       81.11030      -22.74191
C         74.91116       81.22498      -24.11440
O         74.06088       82.08072      -24.31547
H         73.91266       82.29484      -21.96518
H         75.56649       80.04400      -22.47618
H         76.58738       81.48862      -22.76624
N         75.20541       80.35231      -25.12059
C         76.14051       79.23397      -25.00707
C         75.38728       77.91429      -24.97780
O         74.20053       77.88395      -25.27635
C         77.19518       79.30211      -26.12399
C         76.58243       79.34759      -27.49953
O         76.76818       80.31750      -28.21756
O         75.81739       78.33188      -27.94220
H         74.67864       80.45270      -26.00232
H         76.70197       79.27722      -24.05576
H         77.88148       78.43176      -26.05314
H         77.79680       80.22527      -25.96953
N         76.01262       76.78848      -24.52279
C         75.34895       75.50197      -24.36607
C         74.11945       75.63264      -23.50038
O         73.03871       75.30487      -23.97115
H         76.99808       76.85460      -24.22615
H         76.05309       74.77989      -23.89936
H         75.06179       75.11012      -25.36638
N         74.19937       76.17937      -22.25258
C         73.01263       76.50948      -21.46421
C         72.85174       78.01335      -21.41416
O         73.75910       78.72077      -21.81674
C         73.04836       75.87304      -20.05211
C         74.21288       76.37063      -19.18484
O         73.13397       74.47666      -20.16250
H         75.12534       76.47117      -21.90351
H         72.10406       76.12902      -21.97928
H         72.11337       76.14328      -19.50656
H         72.23357       74.15463      -20.43035
H         75.19206       76.10244      -19.63219
H         74.16341       77.47201      -19.04910
H         74.15539       75.89875      -18.18047
N         71.68180       78.57301      -21.00557
C         71.43770       80.01597      -21.02907
C         71.06247       80.55945      -19.64801
O         70.83621       81.75549      -19.52972
C         70.36592       80.34782      -22.11369
C         68.96597       79.78369      -21.75092
C         70.84824       79.83861      -23.49094
C         67.87184       80.17601      -22.74613
H         70.91406       77.94238      -20.73046
H         72.35956       80.55494      -21.32862
H         70.28399       81.45603      -22.17575
H         68.66449       80.18901      -20.76167
H         68.99128       78.67648      -21.68041
H         70.16987       80.15955      -24.30595
H         71.85287       80.24973      -23.72563
H         70.90982       78.72871      -23.50637
H         67.81247       81.28078      -22.84157
H         68.05260       79.72700      -23.74377
H         66.89308       79.79714      -22.38397
N         70.95613       79.73406      -18.56439
C         70.49278       80.15508      -17.24098
C         71.48260       81.02712      -16.45757
O         71.16184       81.37439      -15.33067
C         70.08469       78.90572      -16.41414
C         71.26667       77.99798      -16.03810
O         69.14198       78.16934      -17.15425
H         71.12402       78.73236      -18.70271
H         69.55419       80.73782      -17.37936
H         69.61050       79.26893      -15.47212
H         68.58919       77.65975      -16.50733
H         70.89290       77.13590      -15.44710
H         71.78901       77.59843      -16.93095
H         71.99858       78.55093      -15.41509
N         72.68144       81.42460      -16.97884
C         73.68238       82.25931      -16.30320
C         74.42594       81.48421      -15.21788
O         74.00599       80.40399      -14.82874
C         73.08861       83.62265      -15.81281
C         72.48125       84.43486      -16.96791
O         74.04506       84.40175      -15.13892
H         72.91140       81.13145      -17.93181
H         74.46309       82.49382      -17.05521
H         72.27989       83.43852      -15.08016
H         74.67026       84.77378      -15.81184
H         72.05836       85.38484      -16.57592
H         73.26301       84.68286      -17.71653
H         71.67026       83.86937      -17.47006
N         75.59680       81.98823      -14.73047
C         76.41868       81.38262      -13.69045
C         77.83612       81.08408      -14.20048
O         78.26639       79.94997      -14.04383
C         76.34291       82.24837      -12.40705
C         76.73387       83.73435      -12.54055
C         76.25974       84.56835      -11.33332
C         76.96943       84.24361      -10.01226
N         76.41118       85.04481       -8.91921
H         75.92462       82.87680      -15.11562
H         75.98379       80.40607      -13.37737
H         76.93166       81.76773      -11.59725
H         75.27198       82.22277      -12.10341
H         76.19755       84.17265      -13.40200
H         77.82521       83.84855      -12.71265
H         75.16209       84.43007      -11.21117
H         76.43806       85.64172      -11.56134
H         78.05123       84.47209      -10.12775
H         76.85998       83.16862       -9.75418
H         76.36774       86.05642       -9.18236
H         75.44811       84.70628       -8.68806
H         77.01451       84.94409       -8.07157
N         78.59592       82.00978      -14.86589
C         79.93858       81.73788      -15.39891
C         80.91628       82.76933      -14.88530
O         80.71580       83.95210      -15.11932
C         79.92818       81.73537      -16.94875
C         81.32705       81.65595      -17.61897
C         82.23179       80.54132      -17.13045
O         83.28985       80.82470      -16.59232
O         81.92008       79.24118      -17.30166
H         78.19924       82.94382      -15.03554
H         80.28783       80.72701      -15.09516
H         79.43756       82.65771      -17.32811
H         79.31761       80.88106      -17.27965
H         81.84391       82.62249      -17.43327
H         81.19458       81.56690      -18.71956
N         82.03857       82.37490      -14.22290
C         83.06519       83.29331      -13.77811
H         84.02241       83.03543      -14.27936
H         82.82334       84.34970      -14.01930
H         83.19349       83.19799      -12.68123
H         82.19767       81.37087      -14.05040
Ca        80.10030       78.70658      -18.46428
O         81.50356       76.03068      -17.51670
H         82.20576       75.34261      -17.63356
H         81.17138       75.89412      -16.59392
O         80.74562       75.21943      -20.88369
H         79.94908       74.73321      -21.21506
H         81.35212       74.50820      -20.55681
O         78.48785       75.74425      -18.68574
H         78.19658       74.84005      -18.96502
H         78.09195       75.86703      -17.78655

Ca 1.0



