%chk=apoCaM-CA-Ng.loop4.water5.frame1042.chk
%nprocshared=20
%mem=10GB
%nosave
#b3lyp/svp scf=(tight,noincore,xqc) Test 
#IOP(5/87=12) Density=Current Pop=(MK,readradii) iop(6/33=2) iop(6/42=6)

apoCaM-CA-Ng.loop4.water5.frame1042 

   -3  1 
C         52.30635       66.95955       62.58532
C         53.49606       67.17267       61.68101
O         53.53475       66.50744       60.65636
H         51.38236       67.15963       62.00197
H         52.28869       65.90384       62.92555
H         52.25263       67.60491       63.47569
N         54.50082       68.07125       61.90903
C         54.65642       68.93298       63.07804
C         54.37185       70.38778       62.74030
O         54.43449       71.21121       63.64416
C         56.08078       68.77860       63.64389
C         56.36336       67.35642       64.03617
O         55.61440       66.75150       64.97800
O         57.27459       66.74423       63.50380
H         55.21923       68.15897       61.17515
H         53.95355       68.66541       63.88316
H         56.20506       69.41898       64.54398
H         56.81935       69.11035       62.87952
N         54.00778       70.78480       61.48282
C         53.62744       72.16307       61.17749
C         54.79163       73.14016       61.30933
O         54.54299       74.33556       61.23617
C         52.95906       72.28396       59.77035
C         53.97823       72.04758       58.62377
C         51.73356       71.34851       59.67814
C         53.37204       72.14589       57.22411
H         53.93829       70.08019       60.73958
H         52.85396       72.45686       61.92327
H         52.57472       73.32406       59.66934
H         54.45274       71.05421       58.72606
H         54.77542       72.81971       58.69157
H         52.02279       70.27777       59.69311
H         51.04190       71.53967       60.52553
H         51.16306       71.53238       58.74612
H         54.17806       72.04594       56.46696
H         52.64849       71.32307       57.05022
H         52.86656       73.12451       57.08408
N         56.07838       72.71719       61.50716
C         57.19847       73.64418       61.65819
C         58.45633       72.92157       62.14626
O         58.51412       71.69902       62.14004
C         57.45885       74.36430       60.30480
C         58.44189       75.49637       60.38800
O         58.18984       76.54990       61.18785
O         59.44958       75.49016       59.70045
H         56.25805       71.70914       61.57819
H         56.91335       74.37100       62.45102
H         56.52276       74.81039       59.91728
H         57.80063       73.61294       59.55770
N         59.51080       73.64035       62.61660
C         60.75831       73.04007       63.05087
C         61.45214       72.37203       61.89425
O         61.84488       71.21926       62.00621
H         59.43715       74.66582       62.67274
H         60.58881       72.33130       63.89174
H         61.42678       73.85022       63.41355
N         61.61368       73.05902       60.73059
C         62.32059       72.54841       59.56800
C         61.32510       72.27263       58.44929
O         60.60265       73.19543       58.09782
C         63.33860       73.60008       59.09435
C         64.31854       73.94791       60.17816
O         65.11953       72.99842       60.69721
O         64.38939       75.09291       60.59564
H         61.20639       74.00218       60.66254
H         62.89027       71.65318       59.85049
H         62.79753       74.52261       58.78207
H         63.89448       73.21117       58.21433
N         61.18959       71.07335       57.80584
C         61.94969       69.85072       58.03699
C         62.69534       69.42686       56.78088
O         62.60253       70.13641       55.78842
H         60.47005       71.01779       57.06625
H         61.20701       69.07994       58.31298
H         62.67335       69.92356       58.85291
N         63.43522       68.27526       56.68185
C         63.70271       67.28432       57.72644
C         62.41859       66.87942       58.40726
O         62.25429       67.09141       59.60203
C         64.80338       67.76401       58.69782
C         65.30100       66.59029       59.57096
C         66.41474       66.95542       60.51575
N         66.95523       65.99800       61.30467
O         66.83621       68.10119       60.57744
H         63.82560       68.05717       55.75106
H         64.12694       66.38763       57.21971
H         64.44481       68.60318       59.32832
H         65.66702       68.12346       58.09592
H         65.67663       65.78542       58.90123
H         64.46946       66.17569       60.17618
H         66.61172       65.02658       61.25976
H         67.71903       66.22347       61.95825
N         61.41892       66.36072       57.65542
C         60.06745       66.16958       58.15591
C         59.13434       67.04360       57.33028
O         59.59151       67.71205       56.41131
C         59.69115       64.66121       58.16347
C         60.62365       63.88820       59.10998
C         59.72575       64.01918       56.77065
H         61.60338       66.16844       56.65823
H         59.97707       66.52714       59.20595
H         58.65851       64.55955       58.56257
H         61.67514       63.92795       58.75286
H         60.58541       64.32387       60.12998
H         60.31353       62.82389       59.17640
H         59.39813       62.95939       56.83346
H         59.03891       64.55057       56.08970
H         60.74663       64.04097       56.33720
N         57.80455       67.08661       57.59772
C         56.86616       67.87663       56.80756
C         56.01845       66.97098       55.92082
O         55.16443       67.47795       55.20624
C         56.00003       68.72149       57.76329
C         56.84501       69.63368       58.62509
N         57.60314       70.60834       58.07353
O         56.84057       69.49327       59.83798
H         57.42801       66.49969       58.35861
H         57.39981       68.56133       56.11416
H         55.41443       68.03614       58.41767
H         55.28042       69.33886       57.18433
H         57.61759       70.75470       57.05466
H         58.17461       71.22343       58.67185
N         56.19906       65.61733       55.91817
C         55.36251       64.68845       55.16930
C         55.52308       63.27149       55.70030
O         56.47059       62.98701       56.42258
C         55.61274       64.71400       53.64241
C         56.95106       64.11216       53.25628
C         56.99305       62.85623       52.62149
C         58.15861       64.77535       53.53099
C         58.21535       62.27071       52.28191
C         59.38285       64.19016       53.18148
C         59.41386       62.93296       52.55930
O         60.58416       62.35191       52.22467
H         56.89835       65.22348       56.55372
H         54.31072       64.98437       55.37847
H         55.51096       65.73535       53.21906
H         54.80495       64.10180       53.18502
H         56.07905       62.31792       52.40306
H         58.15587       65.74451       54.01237
H         58.22991       61.29809       51.80517
H         60.30665       64.71175       53.39844
H         61.43839       62.77233       52.39787
N         54.56385       62.34407       55.44744
C         54.57111       61.03327       56.07534
C         53.50908       61.07219       57.15187
O         52.54743       60.31729       57.11316
C         54.39858       59.94996       54.99341
C         54.53785       58.52611       55.55370
C         54.44774       57.50724       54.45525
O         53.47544       56.57598       54.47608
O         55.26262       57.50854       53.54592
H         53.73950       62.61705       54.88878
H         55.53786       60.83914       56.58968
H         55.20101       60.10328       54.23727
H         53.41592       60.07185       54.48533
H         53.73991       58.32425       56.29683
H         55.52168       58.41690       56.05875
N         53.61250       62.02295       58.12879
C         52.57981       62.25823       59.12267
C         51.67416       63.40089       58.68219
O         50.63137       63.58334       59.29473
C         53.20087       62.64392       60.47982
C         54.32052       61.71151       60.96006
C         54.83813       62.21711       62.27380
O         54.10763       62.23512       63.25052
O         56.08710       62.71046       62.36799
H         54.40536       62.68178       58.09884
H         51.96670       61.33654       59.23271
H         52.38978       62.69653       61.24012
H         53.65052       63.65959       60.38416
H         55.15169       61.73096       60.22144
H         53.96332       60.66644       61.06851
N         52.02759       64.23959       57.66057
C         51.21998       65.35361       57.21421
H         50.25132       65.41739       57.75025
H         51.78101       66.29861       57.37709
H         51.01960       65.24201       56.12815
H         52.92719       64.12248       57.17734
Ca        56.70244       63.75933       64.27117
O         56.62496       64.22262       67.38296
H         57.26117       64.11404       68.13361
H         55.79660       63.77866       67.69405
O         53.91714       63.94625       65.53475
H         54.04731       63.02994       65.88785
H         53.08794       64.26572       65.96964
O         58.81369       64.34512       62.15205
H         59.26874       65.21403       62.28661
H         59.45765       63.67297       62.48964
O         58.25179       61.70304       65.58405
H         59.19738       61.84440       65.84003
H         58.28311       61.00753       64.88001
O         59.14810       65.13240       65.57209
H         59.31355       66.06816       65.84996
H         59.91481       64.62357       65.93731

Ca 1.0



