%chk=apoCaM-CA-Ng.loop4.water4.frame318.chk
%nprocshared=20
%mem=10GB
%nosave
#b3lyp/svp scf=(tight,noincore,xqc) Test 
#IOP(5/87=12) Density=Current Pop=(MK,readradii) iop(6/33=2) iop(6/42=6)

apoCaM-CA-Ng.loop4.water4.frame318 

   -3  1 
C         61.71348       78.59620       29.96958
C         62.62748       77.41527       29.89404
O         63.67013       77.44658       30.52714
H         60.74584       78.28055       30.41213
H         62.15546       79.38650       30.61587
H         61.54661       79.01011       28.95510
N         62.27757       76.31202       29.16852
C         63.07508       75.09176       29.11353
C         63.27835       74.54310       30.49701
O         64.40062       74.50312       30.94151
C         64.37325       75.22313       28.25733
C         65.29785       76.41732       28.43311
O         66.02210       76.69845       29.54596
O         65.42540       77.17049       27.48039
H         61.36747       76.31183       28.68365
H         62.49304       74.30248       28.58435
H         64.01331       75.27218       27.20415
H         64.95917       74.28151       28.33455
N         62.20870       74.10365       31.22449
C         62.23505       73.51671       32.56812
C         62.87458       72.12086       32.56984
O         62.16158       71.16348       32.83756
C         62.82065       74.48800       33.63443
C         62.67041       73.94784       35.08231
C         62.18905       75.89063       33.52893
C         61.23102       73.70536       35.55837
H         61.27727       74.19677       30.79000
H         61.16731       73.36550       32.83798
H         63.90545       74.61580       33.44519
H         63.12159       74.69174       35.76313
H         63.23767       73.00010       35.19302
H         61.08909       75.85758       33.66241
H         62.62679       76.56968       34.29174
H         62.39561       76.33828       32.53874
H         60.74020       72.90473       34.96998
H         61.24645       73.37812       36.61921
H         60.62153       74.62991       35.50339
N         64.18550       71.91149       32.25131
C         64.79818       70.59851       32.15201
C         64.98483       69.97584       33.52335
O         64.48294       68.87423       33.69870
C         66.10572       70.65167       31.32854
C         65.82483       71.07676       29.90578
O         65.07084       70.41990       29.20443
O         66.40875       72.17401       29.39313
H         64.79598       72.69632       32.04397
H         64.12698       69.93404       31.55834
H         66.55763       69.63703       31.28829
H         66.84030       71.34417       31.78339
N         65.63117       70.56431       34.57773
C         66.25098       71.89403       34.59185
C         66.62726       72.33627       36.00787
O         66.28898       71.61448       36.93606
H         65.63775       70.00712       35.44462
H         65.50987       72.62928       34.24541
H         67.13693       71.87859       33.93371
N         67.28637       73.49336       36.34129
C         67.90942       74.53673       35.52086
C         66.94353       75.36114       34.63067
O         66.51343       74.61013       33.53622
C         69.12507       74.00871       34.73891
C         69.92777       75.14290       34.15394
O         70.10447       75.21970       32.94958
O         70.46370       76.07787       34.96326
H         67.41033       73.64307       37.35650
H         68.34614       75.25539       36.24618
H         68.80719       73.31680       33.93746
H         69.78923       73.45247       35.43461
N         65.77466       75.90883       35.33264
C         66.06138       76.67637       36.55863
C         65.54268       75.92072       37.75160
O         64.58461       75.17958       37.59579
H         65.28416       76.53522       34.65628
H         65.48312       77.62574       36.53839
H         67.11870       76.99809       36.66031
N         66.09195       76.05600       38.99171
C         65.51320       75.34412       40.12971
C         64.12353       75.86955       40.49514
O         63.44824       75.20796       41.27187
C         66.45208       75.32127       41.35082
C         66.68720       76.68779       42.01081
C         67.62385       76.52943       43.18269
N         67.21886       76.81490       44.44161
O         68.76276       76.12878       42.99283
H         66.92898       76.64503       39.11124
H         65.41037       74.27863       39.81935
H         67.42450       74.88755       41.02841
H         66.01395       74.63818       42.11334
H         65.71352       77.09996       42.35287
H         67.13434       77.40510       41.29187
H         66.26317       77.14365       44.62861
H         67.86186       76.69608       45.23815
N         63.63456       77.04520       39.98740
C         62.29047       77.55032       40.26702
C         62.30099       78.85978       41.04314
O         61.21778       79.31468       41.38481
C         61.47124       77.71859       38.95403
C         61.29473       76.37795       38.23285
C         62.08459       78.75919       37.99883
H         64.23616       77.61435       39.37751
H         61.74168       76.82790       40.91161
H         60.45231       78.07414       39.22712
H         60.65671       76.50857       37.33335
H         62.27087       75.97204       37.91082
H         60.80449       75.64151       38.90409
H         63.08883       78.44750       37.64759
H         61.43366       78.88570       37.10853
H         62.17206       79.74827       38.49653
N         63.45304       79.51295       41.38450
C         63.44668       80.72254       42.20162
C         64.11405       81.91413       41.53239
O         64.09647       82.96579       42.15973
C         64.14608       80.41806       43.54190
C         63.44617       79.31479       44.29733
N         62.17198       79.46552       44.72775
O         64.03894       78.27353       44.52848
H         64.36782       79.12379       41.11716
H         62.40648       81.04558       42.42263
H         64.16059       81.32206       44.18914
H         65.19979       80.12317       43.33709
H         61.65386       80.33874       44.55542
H         61.70312       78.70606       45.24358
N         64.70301       81.87432       40.29404
C         65.37500       83.05436       39.73590
C         65.79476       82.90809       38.27822
O         66.04320       81.80875       37.80152
C         66.60274       83.45443       40.60319
C         67.57688       82.30827       40.79218
C         67.65002       81.65048       42.03369
C         68.41044       81.87783       39.74544
C         68.52196       80.57385       42.21675
C         69.28782       80.80561       39.93272
C         69.34371       80.14682       41.16490
O         70.18902       79.10909       41.32664
H         64.66923       81.00541       39.74158
H         64.63666       83.88785       39.75021
H         66.23767       83.77054       41.59927
H         67.12613       84.34511       40.19302
H         67.01931       81.95890       42.85815
H         68.39184       82.37303       38.78540
H         68.55544       80.07145       43.17541
H         69.92410       80.48590       39.11703
H         70.25547       78.62556       42.16243
N         65.90913       84.04346       37.52348
C         66.39342       84.14582       36.14632
C         65.51836       83.44241       35.10627
O         65.80351       83.57896       33.92542
C         67.88280       83.74317       36.08296
C         68.58388       84.22244       34.79780
C         70.04907       83.90970       34.84050
O         70.46399       82.63092       34.91214
O         70.87149       84.81088       34.79735
H         65.66569       84.93885       37.97648
H         66.35203       85.23015       35.89153
H         67.99239       82.64543       36.21087
H         68.39802       84.25006       36.92981
H         68.44770       85.32388       34.70100
H         68.16496       83.73571       33.89705
N         64.38966       82.75842       35.44384
C         63.45707       82.23419       34.45724
C         62.30680       83.20891       34.37271
O         62.03079       83.70359       33.28829
C         62.97568       80.81592       34.83061
C         64.08563       79.75419       34.94294
C         64.84140       79.53351       33.66145
O         65.55511       80.40926       33.20138
O         64.76278       78.34786       33.03103
H         64.09773       82.71105       36.42614
H         63.91256       82.18900       33.44457
H         62.24360       80.47508       34.06470
H         62.44912       80.85657       35.80799
H         63.59380       78.79719       35.22340
H         64.80009       80.01832       35.75130
N         61.64368       83.59373       35.49981
C         60.61572       84.61106       35.51119
H         59.68783       84.19092       35.94719
H         60.95994       85.46037       36.13986
H         60.39386       85.00103       34.49609
H         61.90606       83.18718       36.40946
Ca        66.43211       75.89212       31.64159
O         68.07210       78.10771       33.08116
H         68.05844       79.09714       33.05890
H         68.45838       77.88507       33.96461
O         68.83519       77.22078       30.13165
H         68.87998       77.61809       29.22578
H         69.76711       77.24512       30.46372
O         68.69191       73.88886       30.73459
H         68.74813       73.29032       31.52027
H         67.72473       73.94023       30.53862
O         66.53611       79.51342       30.10340
H         66.38740       79.04723       30.96349
H         65.62552       79.67046       29.74796

Ca 1.0



