%chk=apoCaM-CA-Ng.loop2.water3.frame504.chk
%nprocshared=20
%mem=10GB
%nosave
#b3lyp/svp scf=(tight,noincore,xqc) Test 
#IOP(5/87=12) Density=Current Pop=(MK,readradii) iop(6/33=2) iop(6/42=6)

apoCaM-CA-Ng.loop2.water3.frame504 

   -2  1 
C         56.17408       69.78150       39.13169
C         55.99624       71.26031       39.30449
O         56.78048       72.01085       38.74157
H         57.18468       69.48746       39.48287
H         55.41529       69.20963       39.70543
H         56.07280       69.52209       38.05628
N         54.96215       71.75533       40.04415
C         54.71181       73.18412       40.20461
C         53.48080       73.56761       39.40662
O         52.53379       74.13460       39.93447
C         54.68888       73.58427       41.70105
C         53.63738       72.92914       42.56475
O         52.82165       72.14661       42.10459
O         53.60007       73.21967       43.87916
H         54.29893       71.08809       40.46386
H         55.53836       73.77170       39.74836
H         54.55483       74.68554       41.77389
H         55.68228       73.33492       42.13296
N         53.47812       73.29867       38.07022
C         52.42610       73.71073       37.14763
C         52.33714       72.73180       35.97448
O         53.21531       71.88863       35.84748
C         52.76751       75.12906       36.67351
H         54.32640       72.86324       37.67877
H         51.44780       73.68375       37.67799
H         52.05205       75.54398       35.94378
H         52.79618       75.81282       37.54858
H         53.77071       75.12840       36.19635
N         51.29340       72.68770       35.09508
C         50.10425       73.53055       35.11327
C         48.96097       72.81562       35.79621
O         48.72602       71.64634       35.52687
C         49.73701       74.01993       33.68909
C         49.39934       72.96584       32.65701
O         49.42415       71.65252       32.94124
O         49.09629       73.31644       31.52826
H         51.31410       71.91919       34.40883
H         50.27562       74.44640       35.70028
H         50.58906       74.61530       33.29671
H         48.85767       74.69575       33.77421
N         48.17804       73.48402       36.69068
C         47.06196       72.84808       37.36218
C         47.52402       71.95432       38.49478
O         48.70008       71.99341       38.83012
H         48.33602       74.49042       36.85526
H         46.45774       72.31875       36.60659
H         46.42556       73.63144       37.82076
N         46.66854       71.16443       39.20828
C         45.26219       70.92322       38.88514
C         44.94724       69.42450       38.79518
O         43.79916       69.09740       38.52746
C         44.37782       71.55392       39.97581
C         44.56464       73.04788       40.03958
N         45.08677       73.63260       41.14172
O         44.24049       73.73765       39.08415
H         47.04822       70.70579       40.05128
H         44.98556       71.37880       37.91455
H         44.63220       71.08781       40.95250
H         43.30294       71.35438       39.77016
H         45.37178       73.06752       41.95456
H         45.21892       74.65402       41.17763
N         45.87814       68.45524       39.05490
C         45.54874       67.04076       39.14689
C         45.16131       66.35929       37.85028
O         44.82660       65.18532       37.92591
H         46.84190       68.70958       39.30270
H         44.72545       66.92148       39.88385
H         46.43192       66.49241       39.54391
N         45.21270       66.97613       36.63318
C         44.87800       66.28798       35.38231
C         46.12610       66.13319       34.53096
O         47.17810       66.61019       34.93948
C         43.75725       67.03997       34.62747
C         42.49199       67.17322       35.48131
O         44.20646       68.31460       34.24867
H         45.53868       67.95073       36.57506
H         44.51406       65.25787       35.58954
H         43.49953       66.44677       33.71957
H         43.68268       68.58279       33.44890
H         41.69568       67.68068       34.89689
H         42.12353       66.17058       35.78491
H         42.69199       67.77565       36.39204
N         46.09578       65.44638       33.34645
C         47.29413       65.22572       32.54159
C         47.13706       65.93153       31.19700
O         46.21858       65.62026       30.45208
C         47.61848       63.70331       32.37417
C         49.06613       63.55735       31.82356
C         47.47883       62.95153       33.71396
C         49.53964       62.13267       31.54386
H         45.20475       65.04692       33.01455
H         48.16189       65.66357       33.07295
H         46.88949       63.25002       31.66662
H         49.77319       63.99070       32.56011
H         49.15017       64.11816       30.87259
H         48.18002       63.35562       34.47422
H         46.44157       63.03198       34.10119
H         47.66846       61.86676       33.58268
H         48.89283       61.65009       30.78415
H         50.58047       62.17564       31.15348
H         49.56527       61.52075       32.46785
N         48.02324       66.90115       30.83640
C         48.00125       67.68095       29.60808
C         49.22624       67.39033       28.74349
O         49.31136       67.97341       27.67133
C         48.01790       69.17713       29.98087
C         46.81251       69.60317       30.77037
O         46.93831       69.88820       32.08092
O         45.72395       69.70181       30.22724
H         48.78196       67.11808       31.47774
H         47.09793       67.44345       29.00438
H         48.09184       69.82675       29.08238
H         48.93338       69.36280       30.58477
N         50.19511       66.49381       29.11065
C         51.32483       66.14582       28.25919
C         52.64703       66.30387       29.02657
O         53.33765       65.31121       29.21514
C         51.09579       64.69760       27.76080
C         52.05516       64.28430       26.66899
C         52.02051       64.92570       25.41650
C         52.97135       63.24006       26.87763
C         52.88840       64.52910       24.39477
C         53.84300       62.85189       25.85483
C         53.80052       63.49434       24.61438
H         50.11240       65.97808       29.99485
H         51.35300       66.79616       27.36030
H         50.07063       64.60934       27.33745
H         51.14862       64.00691       28.63178
H         51.31348       65.72356       25.22523
H         53.01398       62.72909       27.83111
H         52.85116       65.02166       23.43127
H         54.54962       62.04982       26.02277
H         54.47185       63.18839       23.82232
N         53.09657       67.51612       29.48836
C         54.40294       67.71303       30.11488
C         54.65990       66.97703       31.42041
O         55.78869       67.03550       31.88981
C         54.45599       69.21838       30.38687
C         53.62553       69.76843       29.25105
C         52.45579       68.78546       29.22006
H         55.16449       67.41088       29.35953
H         53.89196       69.44125       31.32310
H         55.48302       69.63200       30.48541
H         53.33294       70.83398       29.35746
H         54.21870       69.64690       28.31539
H         51.72840       68.99190       30.03564
H         51.96891       68.84583       28.22525
N         53.68301       66.29566       32.08637
C         53.95536       65.55827       33.31773
C         54.93432       64.45100       33.00234
O         55.98914       64.39223       33.61840
C         52.69225       64.92014       33.94087
C         51.69859       65.89558       34.59301
C         50.96768       66.77847       33.64212
O         50.50725       67.96704       34.07255
O         50.53972       66.30752       32.60891
H         52.73602       66.28753       31.69555
H         54.39177       66.23977       34.08360
H         53.03092       64.26517       34.77447
H         52.17196       64.27281       33.20167
H         52.17780       66.50391       35.38876
H         50.91715       65.27157       35.08041
N         54.64346       63.54847       32.02371
C         55.52599       62.46911       31.64102
H         56.44565       62.43583       32.26124
H         54.98904       61.50446       31.75077
H         55.81966       62.60117       30.57872
H         53.75718       63.63904       31.50391
Ca        48.69348       68.92051       33.13004
O         46.07558       70.32249       35.08525
H         45.81874       71.16455       34.63216
H         45.36286       70.18088       35.75724
O         48.41821       69.06347       37.14487
H         49.07532       69.46307       37.76832
H         48.30127       68.13758       37.47390
O         51.12183       69.55740       36.06218
H         51.27168       70.26312       36.73657
H         52.01918       69.35466       35.69579

Ca 1.0



