%chk=apoCaM-CA-Ng.loop3.water5.frame347.chk
%nprocshared=20
%mem=10GB
%nosave
#b3lyp/svp scf=(tight,noincore,xqc) Test 
#IOP(5/87=12) Density=Current Pop=(MK,readradii) iop(6/33=2) iop(6/42=6)

apoCaM-CA-Ng.loop3.water5.frame347 

   0  1 
C         96.70674       65.48597       28.69243
C         97.89190       65.69410       27.79826
O         97.82267       65.35789       26.62607
H         95.86420       65.02573       28.13359
H         96.99217       64.80709       29.52481
H         96.37629       66.45791       29.11335
N         99.03315       66.23639       28.30869
C        100.27981       66.41288       27.57051
C        100.82686       65.05178       27.15924
O        101.15459       64.83254       26.00083
C        100.09316       67.41883       26.40905
C        101.38709       67.75200       25.72025
O        101.51905       67.53933       24.52531
O        102.40063       68.30417       26.41401
H         99.03562       66.51043       29.30381
H        101.01824       66.85049       28.27959
H         99.67562       68.36352       26.81929
H         99.37162       67.02098       25.66474
N        100.91912       64.07012       28.10326
C        101.43749       62.72217       27.86041
C        100.69891       61.93883       26.77862
O        101.15530       60.85208       26.44758
C        101.40993       61.90483       29.17864
C         99.97269       61.63858       29.68696
C         99.97561       60.88933       31.02301
C         98.54075       60.61764       31.50085
N         98.53892       59.92442       32.78843
H        100.62523       64.31503       29.06054
H        102.49354       62.83332       27.52987
H        101.98163       62.46262       29.95204
H        101.91887       60.92840       29.02070
H         99.41881       61.03339       28.93642
H         99.42786       62.59567       29.82806
H        100.50456       61.50461       31.78338
H        100.51155       59.92246       30.90580
H         98.01065       59.99303       30.74729
H         97.99114       61.58009       31.60509
H         97.55075       59.74235       33.07812
H         99.04173       59.01104       32.70693
H         98.99989       60.51835       33.51562
N         99.54745       62.38982       26.20635
C         98.81445       61.63425       25.19840
C         99.65432       61.43125       23.93650
O        100.70581       62.04094       23.79489
C         97.49469       62.38020       24.89249
C         96.57414       61.63485       23.97942
O         96.08268       60.43680       24.34465
O         96.24956       62.12250       22.91167
H         99.14453       63.27474       26.53062
H         98.57631       60.64003       25.63752
H         97.73541       63.37669       24.46233
H         96.94230       62.55078       25.84179
N         99.24807       60.54729       22.98423
C         99.97671       60.28164       21.75753
C        100.04502       61.49862       20.87146
O        101.12923       61.85316       20.43055
H         98.38656       60.00596       23.13800
H         99.43486       59.49294       21.19474
H        100.99330       59.89219       21.98443
N         98.90777       62.18314       20.56502
C         98.86306       63.32592       19.65948
C         98.55914       64.63898       20.37739
O         98.57255       65.66780       19.71717
C         97.90047       63.04110       18.47232
C         96.45251       62.61652       18.80161
N         95.77053       63.58234       19.65278
O         96.43402       61.32880       19.35839
H         98.03283       61.88021       21.01352
H         99.86677       63.49093       19.20930
H         98.33499       62.21705       17.86601
H         97.86627       63.93713       17.81725
H         95.79867       64.51559       19.18401
H         94.76141       63.32000       19.70698
N         98.33344       64.69826       21.72161
C         98.16806       65.94246       22.46196
C         96.80666       66.05523       23.11004
O         96.64604       66.91105       23.97028
H         98.31273       63.83191       22.27279
H         98.33252       66.84543       21.83536
H         98.94403       65.94863       23.25819
N         95.76178       65.27145       22.72073
C         94.44232       65.32978       23.33668
C         93.44036       64.54445       22.49784
O         93.59560       63.33947       22.35275
C         94.51576       64.72705       24.75582
C         93.15801       64.60161       25.39288
C         92.43821       65.73904       25.78493
C         92.59433       63.32774       25.57778
C         91.16980       65.60205       26.35805
C         91.32581       63.19397       26.13947
C         90.60771       64.33177       26.53251
O         89.37648       64.21527       27.06815
H         95.90043       64.62550       21.93384
H         94.10713       66.39036       23.37850
H         95.19360       65.30482       25.41832
H         94.95346       63.71515       24.65185
H         92.86007       66.72695       25.64889
H         93.12843       62.43671       25.26886
H         90.62018       66.48402       26.65955
H         90.89977       62.20571       26.25901
H         88.94830       63.35483       27.18458
N         92.39039       65.17919       21.90372
C         91.39702       64.49813       21.07930
C         91.74094       64.67431       19.60786
O         91.48757       63.75076       18.84977
C         89.95573       64.99726       21.41876
C         89.57308       64.77879       22.90733
C         88.87850       64.37288       20.50675
C         89.42208       63.31139       23.32734
H         92.31820       66.20457       21.99817
H         91.43466       63.40217       21.26519
H         89.93553       66.09602       21.24028
H         88.59855       65.28078       23.09723
H         90.32521       65.26744       23.56094
H         89.04523       64.63414       19.44949
H         88.87530       63.26623       20.57551
H         87.87325       64.76071       20.77806
H         90.37602       62.75952       23.21194
H         89.11222       63.26421       24.39007
H         88.62570       62.80339       22.74691
N         92.35446       65.79717       19.12412
C         92.71561       65.92452       17.71099
C         91.49336       66.00235       16.79865
O         91.66970       65.92283       15.58993
C         93.61978       67.14460       17.47840
O         94.81832       67.01288       18.19759
H         92.60289       66.55614       19.77292
H         93.30312       65.02039       17.43049
H         93.09143       68.08828       17.74748
H         93.88276       67.21664       16.40121
H         94.68240       67.44431       19.08046
N         90.22750       66.12591       17.29697
C         89.00553       66.08785       16.50247
C         88.91714       64.78295       15.72129
O         88.66740       64.79051       14.52518
C         88.88309       67.33495       15.61810
H         90.09720       66.22042       18.31218
H         88.14880       66.10579       17.21333
H         88.93013       68.24651       16.25156
H         89.70001       67.37957       14.86913
H         87.90876       67.33014       15.08530
N         89.17456       63.61256       16.36646
C         89.18352       62.30062       15.73720
C         88.37524       61.34298       16.58310
O         88.56716       61.32567       17.79008
C         90.62526       61.80161       15.64209
H         89.44611       63.65858       17.35720
H         88.79391       62.33548       14.69592
H         91.09329       61.73245       16.64462
H         90.64713       60.79962       15.16015
H         91.22066       62.49974       15.01495
N         87.48161       60.48351       16.01119
C         86.67838       59.51790       16.76185
C         85.58511       60.19235       17.58435
O         84.88433       59.49111       18.30256
C         87.55469       58.58500       17.64801
C         88.71855       57.91619       16.89724
C         88.24765       57.04535       15.76971
O         87.44033       55.99642       16.01713
O         88.60571       57.27600       14.62585
H         87.38532       60.48307       14.98497
H         86.15029       58.86829       16.02921
H         86.91002       57.79489       18.09240
H         87.98459       59.14723       18.50145
H         89.29026       57.28589       17.61199
H         89.41065       58.69637       16.51242
N         85.33650       61.53249       17.50272
C         84.28262       62.16640       18.26405
H         83.30335       61.70198       18.01958
H         84.48525       62.06225       19.35052
H         84.23226       63.24747       18.01199
H         85.88083       62.13262       16.86813
Ca        94.72375       61.04415       20.85377
O         94.33753       58.42593       23.00158
H         94.15308       58.49799       23.97163
H         94.88584       57.60618       22.91418
O         92.83786       61.06906       18.53912
H         93.55915       61.59773       18.11432
H         92.62890       61.56032       19.37237
O         93.99495       58.29946       19.87751
H         93.10944       58.23664       19.43960
H         94.59279       57.74438       19.31670
O         96.84907       58.79738       21.07726
H         97.09760       57.93384       21.49219
H         97.26235       58.76901       20.17800
O         91.84525       60.47880       21.82085
H         91.57496       60.26938       22.74981
H         91.00002       60.46780       21.30518

Ca 1.0



