%chk=apoCaM-CA-Ng.loop4.water3.frame114.chk
%nprocshared=20
%mem=10GB
%nosave
#b3lyp/svp scf=(tight,noincore,xqc) Test 
#IOP(5/87=12) Density=Current Pop=(MK,readradii) iop(6/33=2) iop(6/42=6)

apoCaM-CA-Ng.loop4.water3.frame114 

   -3  1 
C         31.92285       82.06824      105.03900
C         31.49061       83.24950      105.85211
O         32.03004       83.44901      106.92863
H         32.71314       81.49521      105.57185
H         31.05659       81.40048      104.85553
H         32.33456       82.41822      104.06925
N         30.53938       84.10377      105.37421
C         30.09868       85.31063      106.06794
C         31.26557       86.23667      106.33378
O         31.50078       86.60418      107.46550
C         29.14882       85.01550      107.26871
C         29.45414       83.88143      108.23195
O         30.50122       83.84981      109.08517
O         28.67508       82.94148      108.26766
H         30.14680       83.92147      104.43785
H         29.45834       85.89741      105.36948
H         28.18187       84.73100      106.79300
H         28.94737       85.95429      107.82835
N         31.99979       86.69122      105.27706
C         33.14393       87.60392      105.31187
C         32.75852       88.96634      105.88809
O         32.58586       89.89614      105.11241
C         34.40463       86.96819      105.97683
C         35.66936       87.86566      105.85931
C         34.68917       85.56388      105.41438
C         36.14713       88.13720      104.42537
H         31.71407       86.36856      104.33890
H         33.39919       87.76888      104.24217
H         34.20524       86.82552      107.05628
H         36.50366       87.37194      106.40384
H         35.48179       88.84089      106.35691
H         34.85223       85.58542      104.31824
H         35.58285       85.12780      105.90759
H         33.83813       84.88585      105.61894
H         35.38726       88.69662      103.84364
H         37.06881       88.75507      104.45493
H         36.39517       87.19453      103.89599
N         32.63913       89.17043      107.23347
C         32.21618       90.42804      107.83233
C         33.41485       91.27896      108.26212
O         33.49091       92.39500      107.76653
C         31.19451       90.18288      108.97134
C         29.92469       89.49824      108.52829
O         29.74450       89.17700      107.36406
O         28.96731       89.23791      109.43901
H         32.86169       88.40627      107.87483
H         31.66961       91.03441      107.07299
H         30.91087       91.16090      109.41627
H         31.63177       89.55608      109.76640
N         34.40497       90.90300      109.13211
C         34.51317       89.60369      109.78359
C         35.75062       89.45196      110.65088
O         36.56496       90.36490      110.66591
H         35.13548       91.60848      109.31132
H         34.61266       88.84703      108.99458
H         33.63268       89.46081      110.41617
N         36.03706       88.33745      111.40038
C         35.24604       87.12643      111.65838
C         34.89427       86.24904      110.42338
O         33.88355       86.76957      109.62295
C         33.98928       87.43859      112.50021
C         33.29670       86.20836      113.03937
O         32.20650       86.35640      113.81427
O         33.70978       85.08363      112.79940
H         36.94149       88.36233      111.89966
H         35.86468       86.49222      112.32843
H         33.24736       88.00861      111.91527
H         34.29616       88.05328      113.37305
N         35.94740       85.60696      109.61154
C         37.33647       85.66278      110.07360
C         38.01897       86.93156      109.64807
O         37.41795       87.76259      108.98238
H         35.86695       85.82508      108.59053
H         37.89318       84.82494      109.60500
H         37.40700       85.50983      111.16746
N         39.32285       87.11572      109.96713
C         40.07959       88.28414      109.55131
C         41.05358       87.89190      108.44851
O         41.83997       88.72821      108.02330
C         40.73660       88.88542      110.80864
C         41.22762       90.32583      110.61678
C         41.71770       90.87312      111.93184
N         41.04130       91.86206      112.56304
O         42.72362       90.40456      112.44355
H         39.81908       86.37038      110.48233
H         39.40029       89.05363      109.12419
H         41.54678       88.21957      111.17830
H         39.95008       88.93798      111.59597
H         40.36639       90.93386      110.26223
H         42.03679       90.40075      109.86218
H         40.17550       92.25192      112.16200
H         41.36884       92.22316      113.47103
N         41.01132       86.64219      107.88983
C         41.87988       86.18929      106.81770
C         42.75816       85.02744      107.27468
O         43.64029       84.64717      106.52191
C         41.04815       85.86139      105.54417
C         40.33056       87.12575      105.04084
C         40.01911       84.73536      105.75993
H         40.31495       85.95986      108.21709
H         42.59199       87.00040      106.54548
H         41.75112       85.53448      104.74673
H         39.78257       86.91357      104.09866
H         39.60152       87.49835      105.79304
H         41.06958       87.93001      104.83669
H         40.52014       83.80485      106.09774
H         39.24613       85.02053      106.50427
H         39.49354       84.51700      104.80569
N         42.62566       84.46853      108.52057
C         43.60568       83.55645      109.09354
C         43.00331       82.21869      109.47465
O         43.54899       81.20075      109.06637
C         44.19515       84.20902      110.36378
C         44.75367       85.58181      110.08032
N         44.22327       86.67484      110.68002
O         45.68197       85.71004      109.29664
H         41.86932       84.76640      109.14695
H         44.44756       83.37900      108.38730
H         44.99722       83.56496      110.78685
H         43.39743       84.29949      111.13243
H         43.43493       86.58692      111.33810
H         44.59380       87.61554      110.48119
N         41.93775       82.13842      110.32532
C         41.52452       80.89451      110.96211
C         40.09402       80.48943      110.63673
O         39.18186       81.28512      110.81329
C         41.62757       81.05240      112.49466
C         42.99377       81.45539      112.99351
C         44.11941       80.65074      112.74932
C         43.14345       82.63273      113.74643
C         45.37143       81.01827      113.25327
C         44.39352       82.99491      114.25275
C         45.51237       82.18658      114.01013
O         46.72213       82.51808      114.50426
H         41.46475       83.00514      110.62474
H         42.20398       80.06263      110.67561
H         41.37681       80.08520      112.97577
H         40.87486       81.80161      112.82812
H         44.02905       79.73571      112.17838
H         42.29023       83.26640      113.95475
H         46.23148       80.38860      113.06370
H         44.48841       83.89976      114.83978
H         46.85620       83.30784      115.04777
N         39.83769       79.18576      110.31420
C         38.52709       78.53084      110.27185
C         37.64058       78.87401      109.08917
O         36.64587       78.17727      108.92834
C         37.72698       78.74370      111.58235
C         38.51089       78.36707      112.84529
C         37.70077       78.65285      114.07733
O         36.64086       78.07788      114.26667
O         38.14088       79.55167      114.97936
H         40.64656       78.55045      110.22727
H         38.73481       77.44064      110.17056
H         36.79819       78.13208      111.54584
H         37.41885       79.80843      111.65745
H         39.43630       78.96858      112.89711
H         38.79026       77.29276      112.82106
N         37.87743       79.90774      108.23290
C         36.94314       80.20646      107.14984
C         37.14826       79.29744      105.94836
O         36.36177       79.38946      105.01487
C         37.01736       81.68917      106.73482
C         36.76928       82.68699      107.88357
C         35.43868       82.50785      108.56913
O         34.58253       83.37190      108.48407
O         35.20314       81.42134      109.32877
H         38.68173       80.52991      108.38688
H         35.90630       80.02939      107.50521
H         36.25203       81.87722      105.94863
H         38.01771       81.90151      106.29882
H         36.81889       83.70505      107.44194
H         37.57085       82.61523      108.64732
N         38.16836       78.39441      105.88621
C         38.35008       77.52718      104.74330
H         39.23944       76.88003      104.89703
H         37.45672       76.87984      104.61345
H         38.50541       78.13522      103.82688
H         38.84473       78.31054      106.65802
Ca        32.27936       85.17329      109.48235
O         30.47865       86.76797      111.35238
H         29.61428       86.30586      111.21389
H         30.66267       87.21676      110.48964
O         31.01887       83.26249      112.09688
H         31.58201       82.64702      112.63022
H         31.04278       84.11684      112.59554
O         32.05206       81.59765      109.79846
H         31.63145       81.29764      108.95382
H         32.69926       80.88426      110.02274

Ca 1.0



