%chk=apoCaM-CA-Ng.loop2.water4.frame546.chk
%nprocshared=20
%mem=10GB
%nosave
#b3lyp/svp scf=(tight,noincore,xqc) Test 
#IOP(5/87=12) Density=Current Pop=(MK,readradii) iop(6/33=2) iop(6/42=6)

apoCaM-CA-Ng.loop2.water4.frame546 

   -2  1 
C         66.36070       38.13681       71.41557
C         65.86808       38.57773       70.06824
O         65.62517       39.76176       69.89531
H         67.30220       38.67621       71.65261
H         65.60206       38.36806       72.19127
H         66.57120       37.04673       71.43495
N         65.69716       37.67069       69.06478
C         65.29195       38.01450       67.70314
C         66.38094       38.86382       67.05501
O         67.29746       38.31120       66.45670
C         65.03510       36.69850       66.91857
C         64.62166       36.86260       65.47912
O         64.42845       35.86700       64.79910
O         64.47025       38.07993       64.92340
H         65.87156       36.67798       69.28598
H         64.33116       38.57885       67.72976
H         64.23115       36.13078       67.43934
H         65.95888       36.08049       66.94023
N         66.35471       40.22369       67.15411
C         67.38717       41.08463       66.58514
C         68.75141       40.83490       67.21995
O         68.79405       40.49691       68.39373
C         67.03308       42.56163       66.78094
H         65.55963       40.66657       67.64066
H         67.41725       40.86741       65.49876
H         67.84277       43.21448       66.38983
H         66.09886       42.79900       66.23254
H         66.89536       42.78995       67.86007
N         69.92579       40.98380       66.52813
C         70.00583       41.41765       65.13338
C         70.02133       40.24309       64.17960
O         70.19268       39.10619       64.60752
C         71.14897       42.43564       64.88794
C         72.54704       41.95486       65.17861
O         72.78306       40.71591       65.63746
O         73.48924       42.70927       64.99565
H         70.79775       40.74211       67.02316
H         69.09062       41.97804       64.87375
H         70.96165       43.33412       65.51327
H         71.12049       42.75032       63.82273
N         69.78628       40.45195       62.85623
C         69.71368       39.39649       61.86094
C         68.50904       38.48858       62.02862
O         67.70894       38.71164       62.92587
H         69.64925       41.42122       62.52595
H         70.63854       38.79083       61.90383
H         69.63555       39.86522       60.85777
N         68.29797       37.41482       61.20909
C         69.17737       37.03120       60.10678
C         69.91590       35.73590       60.41088
O         70.69462       35.32095       59.56294
C         68.36364       36.84218       58.81017
C         67.46730       38.01104       58.49651
N         66.12719       37.83380       58.40434
O         67.94829       39.12050       58.32138
H         67.47465       36.81889       61.39084
H         69.94442       37.81052       59.92149
H         67.73870       35.92910       58.91843
H         69.05853       36.67623       57.95642
H         65.70588       36.90232       58.54167
H         65.50373       38.62585       58.19298
N         69.70088       35.02132       61.56021
C         70.32502       33.73401       61.83807
C         71.71097       33.84264       62.45403
O         71.92713       33.26990       63.51938
H         68.97038       35.32388       62.21843
H         70.35723       33.12962       60.90557
H         69.67471       33.17747       62.54819
N         72.70563       34.52736       61.83738
C         74.11196       34.56141       62.23232
C         74.36664       34.86770       63.70674
O         73.95659       35.89361       64.21960
C         74.87437       35.55307       61.32361
C         76.32363       35.78016       61.77804
O         74.85724       35.04501       60.01317
H         72.46932       35.02225       60.97057
H         74.53248       33.55203       62.03247
H         74.34469       36.53103       61.35052
H         75.21168       35.75449       59.41824
H         76.34507       36.27032       62.77604
H         76.87033       34.81687       61.83403
H         76.83731       36.46382       61.07233
N         75.13634       33.98320       64.40617
C         75.58231       34.12321       65.78742
C         76.72404       35.13502       65.88856
O         77.74107       34.97908       65.22302
C         76.01819       32.71826       66.30779
C         76.64361       32.76840       67.72532
C         74.79294       31.77228       66.29008
C         77.21747       31.41655       68.15634
H         75.44913       33.13726       63.90862
H         74.73100       34.43588       66.42216
H         76.79500       32.32886       65.61145
H         75.89938       33.11885       68.47307
H         77.49612       33.47880       67.72471
H         74.03359       32.11427       67.02719
H         74.30543       31.74159       65.29403
H         75.08077       30.72977       66.52315
H         76.42037       30.65862       68.29370
H         77.93903       31.05412       67.39237
H         77.75213       31.52651       69.12223
N         76.62069       36.16972       66.76496
C         77.61691       37.18742       67.04176
C         78.07670       37.16124       68.51012
O         78.94825       37.95285       68.84945
C         76.96633       38.55719       66.76913
C         76.53931       38.73960       65.32782
O         77.38084       38.69251       64.45010
O         75.27050       39.01694       64.97458
H         75.75743       36.26684       67.28462
H         78.51210       37.04432       66.39441
H         77.69809       39.35890       66.99982
H         76.10502       38.68528       67.46496
N         77.55259       36.29367       69.43266
C         77.95701       36.23044       70.83471
C         76.73887       36.32308       71.78067
O         76.55967       35.42356       72.59042
C         78.77606       34.92337       70.96129
C         79.38949       34.55950       72.29229
C         80.05686       35.50057       73.09619
C         79.36320       33.21149       72.69662
C         80.67124       35.09611       74.28809
C         79.99321       32.81061       73.87565
C         80.64444       33.75206       74.67331
H         76.87847       35.58487       69.13082
H         78.63353       37.07731       71.08529
H         79.62804       35.02332       70.25494
H         78.15415       34.07449       70.59827
H         80.10627       36.54184       72.80879
H         78.88207       32.46037       72.08147
H         81.18015       35.82247       74.90805
H         79.98508       31.76688       74.16349
H         81.13431       33.43596       75.58507
N         75.87298       37.39224       71.77675
C         74.77927       37.59934       72.73894
C         73.77641       36.44538       72.78620
O         73.39183       36.02296       73.87065
C         74.11881       38.90950       72.26960
C         75.28386       39.63831       71.62654
C         75.96197       38.51102       70.86164
H         75.22597       37.76920       73.74293
H         73.38494       38.70833       71.45757
H         73.60664       39.47928       73.07767
H         75.00554       40.51932       71.00779
H         75.98086       39.96993       72.42979
H         75.38173       38.25008       69.95310
H         76.99368       38.80438       70.58639
N         73.38147       35.84957       71.63082
C         72.49249       34.68421       71.51105
C         72.92369       33.57024       72.43552
O         72.12128       33.13285       73.25260
C         72.44589       34.04954       70.08578
C         72.19078       35.00360       68.93687
C         73.41105       35.65552       68.43806
O         73.16321       36.43234       67.37447
O         74.51815       35.45254       68.89540
H         73.77524       36.27524       70.79909
H         71.46140       35.01300       71.77021
H         71.61206       33.31505       70.07654
H         73.36076       33.46747       69.83662
H         71.41131       35.75708       69.19006
H         71.86101       34.44042       68.04408
N         74.17792       33.05024       72.34307
C         74.66338       31.96530       73.16722
H         75.55201       32.30787       73.73634
H         73.89771       31.60576       73.88654
H         74.95855       31.11753       72.51443
H         74.83441       33.44270       71.64865
Ca        73.61386       38.07945       66.02594
O         71.16989       36.23083       65.07869
H         70.26376       36.57471       64.88362
H         71.09981       35.26040       64.90824
O         70.52664       37.99152       67.38753
H         70.35009       38.48817       68.22406
H         69.74975       37.38617       67.29129
O         73.04442       38.52775       62.99892
H         73.94144       38.40939       62.60069
H         72.69288       39.33594       62.55137
O         73.58812       39.72549       68.25578
H         73.90089       38.79925       68.40071
H         72.78681       39.79624       68.82894

Ca 1.0



