%chk=apoCaM-CA-Ng.loop2.water2.frame848.chk
%nprocshared=20
%mem=10GB
%nosave
#b3lyp/svp scf=(tight,noincore,xqc) Test 
#IOP(5/87=12) Density=Current Pop=(MK,readradii) iop(6/33=2) iop(6/42=6)

apoCaM-CA-Ng.loop2.water2.frame848 

   -2  1 
C         67.57916       60.79940       80.80618
C         66.71352       60.13032       79.78322
O         66.89887       58.94795       79.53054
H         68.14648       61.62487       80.33006
H         66.94520       61.20834       81.62115
H         68.29684       60.07396       81.24656
N         65.71077       60.82746       79.17716
C         64.80094       60.23256       78.20781
C         63.44207       60.07794       78.86992
O         62.44177       60.58321       78.37910
C         64.79802       61.09281       76.92417
C         63.97641       60.48750       75.82001
O         64.29680       59.27637       75.32581
O         63.03125       61.10032       75.34950
H         65.55424       61.80971       79.45334
H         65.13977       59.20843       77.93682
H         65.84030       61.19145       76.55046
H         64.42314       62.11306       77.16464
N         63.36306       59.37051       80.03463
C         62.12802       59.13617       80.77229
C         61.48982       60.45353       81.18000
O         62.16438       61.23007       81.84279
C         62.43042       58.32311       82.04016
H         64.23643       58.97509       80.41569
H         61.46170       58.53366       80.12872
H         63.13186       58.87994       82.70086
H         61.49812       58.12215       82.60801
H         62.89963       57.35338       81.77166
N         60.22445       60.83093       80.82701
C         59.27254       60.02920       80.05045
C         58.13077       60.89002       79.50417
O         58.03698       62.06419       79.83198
C         58.73419       58.82352       80.86894
C         58.04732       59.23048       82.14493
O         56.87540       58.94557       82.32970
O         58.73660       59.86193       83.11441
H         59.94971       61.78039       81.11743
H         59.79484       59.66081       79.14126
H         59.55337       58.13634       81.15044
H         58.03176       58.23637       80.23859
N         57.27966       60.38131       78.56831
C         56.29826       61.19625       77.86738
C         54.94522       60.53665       77.82813
O         54.54106       60.14218       76.74299
H         57.40543       59.40608       78.25482
H         56.65625       61.28481       76.81757
H         56.21757       62.22700       78.26833
N         54.15379       60.34698       78.91908
C         54.42693       60.79648       80.28208
C         54.32649       62.31690       80.36260
O         53.33886       62.85742       79.88270
C         53.37115       60.14718       81.20779
C         53.61780       60.28658       82.68508
N         52.72876       59.74705       83.54894
O         54.61371       60.85014       83.11057
H         53.27158       59.83445       78.75212
H         55.42117       60.42202       80.60493
H         53.35807       59.05302       81.00932
H         52.36578       60.55602       80.96427
H         51.89141       59.25805       83.20205
H         52.86812       59.81124       84.56319
N         55.28140       63.06847       80.98651
C         55.23453       64.52755       81.04756
C         54.93276       65.08019       82.42905
O         54.84321       66.29362       82.54742
H         56.06633       62.58973       81.44783
H         54.43636       64.92245       80.38357
H         56.20014       64.93370       80.67810
N         54.70983       64.27249       83.50347
C         54.27256       64.76071       84.80988
C         55.27884       64.41094       85.89110
O         56.29735       63.79831       85.60916
C         52.87462       64.15282       85.13021
C         51.80170       64.70306       84.19465
O         52.89409       62.75677       85.01109
H         54.80396       63.25679       83.39321
H         54.18128       65.86819       84.82410
H         52.53811       64.42656       86.15443
H         53.45821       62.42941       85.75207
H         52.03324       64.46094       83.13682
H         50.81724       64.25806       84.45530
H         51.72954       65.80502       84.31398
N         55.02053       64.76748       87.18091
C         55.86194       64.41301       88.31120
C         55.08967       63.36289       89.08581
O         54.00547       63.64408       89.57627
C         56.19381       65.69107       89.14011
C         56.95631       65.42438       90.46644
C         56.94792       66.71550       88.26999
C         58.36667       64.85163       90.31626
H         54.14489       65.26819       87.39196
H         56.81674       63.96264       87.96127
H         55.22742       66.15704       89.43603
H         56.35950       64.73632       91.10214
H         57.04270       66.38677       91.01886
H         57.14535       67.64377       88.84686
H         57.91312       66.30254       87.90880
H         56.34587       66.99364       87.37982
H         58.81093       64.71768       91.32584
H         58.34014       63.86893       89.80870
H         59.02533       65.54562       89.75508
N         55.58504       62.09932       89.17315
C         54.89730       60.97967       89.80295
C         55.62704       60.54646       91.06509
O         55.20309       59.57033       91.67265
C         54.78604       59.82651       88.78164
C         53.86116       60.16799       87.64237
O         52.66855       60.30831       87.86043
O         54.31161       60.32725       86.38195
H         56.51090       61.90706       88.76693
H         53.87072       61.25961       90.12884
H         54.37157       58.91519       89.26568
H         55.79489       59.57335       88.40066
N         56.65468       61.28287       91.58328
C         57.25523       61.03035       92.88238
C         58.78480       61.12809       92.79587
O         59.26102       62.16431       92.34594
C         56.73815       62.11482       93.84716
C         57.31596       61.93423       95.22427
C         58.37981       62.74838       95.64033
C         56.82590       60.93973       96.08755
C         58.95686       62.56370       96.89665
C         57.39647       60.76870       97.35294
C         58.46479       61.57671       97.75428
H         56.95117       62.14711       91.10747
H         56.91742       60.05134       93.27582
H         55.62632       62.10943       93.90689
H         57.02872       63.10790       93.43813
H         58.77738       63.50909       94.97983
H         56.00335       60.30325       95.78332
H         59.78873       63.18456       97.20059
H         57.01526       60.00680       98.02044
H         58.91367       61.43783       98.72845
N         59.63273       60.15686       93.26581
C         61.09031       60.29742       93.35392
C         61.87166       60.49698       92.05717
O         63.09085       60.56457       92.13140
C         61.53641       58.97418       93.98545
C         60.36835       58.64579       94.87969
C         59.19153       58.96409       93.96692
H         61.29747       61.14821       94.04239
H         61.56680       58.18174       93.20085
H         62.52617       59.01723       94.48803
H         60.36267       57.61678       95.29609
H         60.37309       59.37683       95.72207
H         59.01297       58.15875       93.22147
H         58.30967       59.11115       94.62005
N         61.26547       60.56389       90.84087
C         61.99087       60.64786       89.56888
C         62.87144       61.88044       89.37869
O         63.52995       61.94433       88.34839
C         60.99803       60.47658       88.40557
C         59.95146       61.59866       88.29290
C         58.81623       61.09888       87.46603
O         58.20100       60.11877       87.85510
O         58.40992       61.70556       86.34175
H         60.24519       60.45558       90.80788
H         62.67038       59.76894       89.52241
H         60.48706       59.50753       88.60488
H         61.52167       60.37448       87.43004
H         60.40030       62.52872       87.88309
H         59.51000       61.84092       89.28088
N         62.99272       62.86899       90.30964
C         63.92934       63.95979       90.13236
H         64.95900       63.55432       90.01333
H         63.66385       64.55433       89.23357
H         63.92046       64.62152       91.02386
H         62.44695       62.84775       91.18059
Ca        56.43478       60.77959       85.83033
O         57.82071       62.69521       83.43698
H         58.12276       63.63170       83.54071
H         58.17919       62.41950       82.55826
O         57.35273       57.98853       85.71380
H         58.06238       57.51777       86.21845
H         57.06723       57.34420       85.01881

Ca 1.0



