%chk=apoCaM-CA-Ng.loop3.water5.frame1082.chk
%nprocshared=20
%mem=10GB
%nosave
#b3lyp/svp scf=(tight,noincore,xqc) Test 
#IOP(5/87=12) Density=Current Pop=(MK,readradii) iop(6/33=2) iop(6/42=6)

apoCaM-CA-Ng.loop3.water5.frame1082 

   0  1 
C         55.03628       86.89165        4.87720
C         55.53563       88.15009        4.23943
O         55.57441       89.18154        4.89562
H         54.15030       86.52336        4.31847
H         55.83457       86.12094        4.84740
H         54.74698       87.07273        5.93388
N         55.93401       88.12989        2.93896
C         56.42174       89.30106        2.23115
C         55.46005       89.66236        1.11203
O         54.98414       90.78821        1.11270
C         57.90145       89.11157        1.81417
C         58.23596       87.88793        0.99615
O         59.06589       86.95788        1.50507
O         57.82071       87.75074       -0.14106
H         55.88159       87.23800        2.42337
H         56.44448       90.18477        2.90821
H         58.49002       89.03860        2.75497
H         58.25405       90.02200        1.28987
N         55.10941       88.77748        0.13397
C         54.19636       89.11197       -0.95324
C         55.01421       89.26503       -2.22453
O         54.80434       88.56792       -3.20678
C         53.06500       88.06464       -1.05147
C         52.22188       87.99918        0.23621
C         51.09632       86.96087        0.11423
C         50.27278       86.87556        1.40882
N         49.19780       85.89016        1.28510
H         55.50947       87.83140        0.13747
H         53.71527       90.10215       -0.78537
H         53.50532       87.06413       -1.25489
H         52.39727       88.33686       -1.89881
H         51.77559       88.99856        0.43673
H         52.87461       87.72347        1.09303
H         51.53841       85.96271       -0.09755
H         50.42648       87.24085       -0.72827
H         49.83040       87.87053        1.63803
H         50.93831       86.58519        2.25231
H         49.59527       84.94451        1.08062
H         48.66805       85.84502        2.18574
H         48.53999       86.16894        0.52117
N         55.97317       90.23113       -2.24090
C         56.83731       90.57750       -3.37091
C         58.31803       90.49221       -3.00624
O         59.14492       90.71423       -3.88002
C         56.50664       92.01288       -3.83464
C         56.55898       92.96411       -2.68037
O         57.61819       93.41898       -2.27753
O         55.46748       93.00944       -1.90391
H         56.07145       90.78594       -1.37943
H         56.65582       89.88668       -4.22172
H         55.46199       92.01993       -4.21632
H         57.16055       92.35913       -4.66280
N         58.73184       90.20159       -1.73998
C         60.12168       90.11281       -1.32972
C         60.84964       88.95848       -1.97714
O         60.28082       88.29402       -2.83202
H         58.03940       90.05236       -1.00090
H         60.12803       89.91652       -0.24227
H         60.64302       91.07403       -1.52671
N         62.11011       88.59835       -1.60326
C         62.87421       89.21080       -0.51997
C         62.60954       88.42886        0.76326
O         62.80021       87.22116        0.74936
C         64.37415       89.16697       -0.88183
C         65.25042       89.72631        0.21291
N         66.15691       88.93752        0.83766
O         65.14234       90.89894        0.53794
H         62.50236       87.74883       -2.04027
H         62.60353       90.27924       -0.40876
H         64.54978       89.74809       -1.81337
H         64.66442       88.11265       -1.08226
H         66.26203       87.94506        0.58008
H         66.75275       89.31596        1.58851
N         62.17760       89.00951        1.92255
C         62.00374       90.44602        2.09228
C         61.53074       90.84463        3.47005
O         61.23247       89.99234        4.29830
H         62.01425       88.38317        2.72640
H         61.26405       90.84262        1.37317
H         62.98070       90.93980        1.91604
N         61.46967       92.16794        3.78642
C         61.04312       92.66833        5.08755
C         59.97622       93.74350        4.90478
O         59.72513       94.13902        3.77305
C         62.28956       93.25247        5.78799
C         62.12410       93.45960        7.27038
C         62.16489       94.74526        7.83187
C         61.96803       92.34526        8.11266
C         62.04651       94.91189        9.21589
C         61.86038       92.51302        9.49447
C         61.89948       93.79854       10.05161
O         61.80404       93.97411       11.38486
H         61.79063       92.85253        3.08155
H         60.63293       91.82910        5.69052
H         62.58012       94.19310        5.26843
H         63.14137       92.54539        5.67483
H         62.28772       95.61649        7.20132
H         61.94989       91.34369        7.70004
H         62.07710       95.90720        9.64008
H         61.75426       91.64264       10.13008
H         61.71742       93.22842       11.99617
N         59.31917       94.29135        5.96536
C         58.38976       95.41771        5.80657
C         59.13103       96.66792        5.31784
O         60.35283       96.65226        5.25739
C         57.58155       95.70508        7.11567
C         56.59774       94.53868        7.38999
C         58.48816       96.00409        8.33117
C         55.63251       94.80227        8.54810
H         59.48992       93.88889        6.89666
H         57.65251       95.15225        5.01750
H         56.95884       96.60766        6.93429
H         57.15029       93.59477        7.58356
H         55.97211       94.39227        6.48152
H         59.19034       96.83194        8.10361
H         57.88285       96.32176        9.20433
H         59.07279       95.11555        8.64398
H         55.05976       95.73749        8.36965
H         54.91255       93.95988        8.62466
H         56.17032       94.87554        9.51452
N         58.44107       97.79283        4.95018
C         59.09403       99.02845        4.51063
C         58.64119       99.46571        3.11530
O         57.80433       98.81791        2.50525
C         58.83794      100.12590        5.55546
O         57.46841      100.40200        5.65246
H         57.41210       97.78703        5.01104
H         60.19528       98.88380        4.45829
H         59.38832      101.05282        5.28378
H         59.22222       99.76857        6.53781
H         57.37987      101.08807        6.36411
N         59.19955      100.57866        2.55227
C         58.94333      101.09663        1.21072
C         57.50033      101.52465        0.98007
O         56.91682      101.14796       -0.02823
C         59.44655      100.11339        0.14183
H         59.89859      101.09840        3.10263
H         59.55248      102.02190        1.10050
H         60.52094       99.88953        0.31077
H         58.87296       99.16351        0.16650
H         59.34462      100.56245       -0.87017
N         56.87555      102.36290        1.85837
C         55.55963      102.95642        1.62722
C         54.51783      101.90674        1.28708
O         53.93158      101.95061        0.21256
C         55.66150      104.04628        0.55052
H         57.36549      102.61868        2.72903
H         55.23482      103.47425        2.55702
H         54.67553      104.54324        0.41941
H         56.39372      104.81752        0.87165
H         55.98630      103.62713       -0.42419
N         54.23987      100.92464        2.18193
C         53.27301       99.86771        1.93750
C         52.14221       99.98217        2.92769
O         51.00639      100.16663        2.51050
C         53.98915       98.51685        2.03862
C         53.03137       97.33479        1.88891
C         53.83103       96.08483        1.83664
O         53.87674       95.44862        0.66691
O         54.51241       95.71340        2.77968
H         54.74210      100.92660        3.08284
H         52.83913       99.94685        0.91300
H         54.52205       98.42691        3.00974
H         54.75184       98.48002        1.22549
H         52.48204       97.44441        0.92670
H         52.29212       97.27900        2.71513
N         52.37457       99.87011        4.26148
C         51.30871       99.96860        5.22915
H         50.55471       99.17456        5.04140
H         51.71911       99.84129        6.25208
H         50.82689      100.96621        5.15365
H         53.33305       99.70493        4.60251
Ca        55.34204       93.91405        0.10172
O         53.26421       92.58931        2.40818
H         53.12140       91.69495        2.80912
H         52.67498       93.19162        2.92639
O         58.54061       92.68891        0.91760
H         59.38368       92.67604        0.39921
H         58.82241       92.51032        1.84957
O         57.48554       95.39747        2.29157
H         58.36558       95.31987        1.84598
H         57.22998       96.34461        2.16962
O         56.82658       96.43921       -0.72339
H         56.81363       95.96783       -1.59371
H         57.75697       96.33618       -0.40167
O         56.49489       92.87234        3.53513
H         57.22247       92.46605        4.06987
H         55.66597       92.62906        4.01816

Ca 1.0



