%chk=apoCaM-CA-Ng.loop4.water4.frame277.chk
%nprocshared=20
%mem=10GB
%nosave
#b3lyp/svp scf=(tight,noincore,xqc) Test 
#IOP(5/87=12) Density=Current Pop=(MK,readradii) iop(6/33=2) iop(6/42=6)

apoCaM-CA-Ng.loop4.water4.frame277 

   -3  1 
C         15.04155       33.92252       17.15996
C         14.26328       33.42355       15.98290
O         14.77693       33.49694       14.88399
H         16.02560       34.32523       16.82994
H         14.47897       34.73183       17.66717
H         15.22369       33.08671       17.86599
N         13.02268       32.87872       16.14200
C         12.21497       32.33265       15.05331
C         12.89711       31.17575       14.36283
O         13.20879       31.29166       13.19423
C         11.60615       33.40258       14.09472
C         12.39686       34.57234       13.52125
O         13.47177       34.48332       12.70199
O         11.97363       35.69401       13.75287
H         12.64309       32.80923       17.09815
H         11.30786       31.85968       15.49546
H         10.78461       33.87273       14.68193
H         11.10494       32.86877       13.25751
N         13.10657       30.00500       15.04476
C         13.70814       28.77507       14.51431
C         12.76715       28.04977       13.54497
O         12.30633       26.97295       13.90042
C         15.15232       29.04028       14.01457
C         15.85402       27.80191       13.40114
C         15.96986       29.62212       15.18521
C         15.99333       26.59795       14.32600
H         12.82974       29.98153       16.03863
H         13.80557       28.07938       15.37983
H         15.12246       29.79451       13.20375
H         16.86983       28.09483       13.05564
H         15.28985       27.47029       12.51215
H         16.98691       29.85847       14.86859
H         15.52217       30.56546       15.56164
H         16.03510       28.90955       16.03219
H         16.47851       25.77532       13.76241
H         16.61946       26.84538       15.20612
H         15.00244       26.23194       14.65724
N         12.38965       28.57172       12.34491
C         11.36733       27.96667       11.49956
C         11.79959       26.61298       10.92573
O         11.08497       25.65939       11.20240
C         10.86870       28.97039       10.43815
C         10.17645       30.17369       11.03869
O          9.72872       31.03670       10.30118
O         10.03284       30.31116       12.37274
H         12.78449       29.45916       12.03279
H         10.46491       27.77288       12.12804
H         10.13321       28.46219        9.77698
H         11.71164       29.35042        9.84154
N         12.92153       26.36414       10.17649
C         13.96042       27.30668        9.79666
C         13.61315       28.14031        8.57951
O         12.51338       27.99935        8.06361
H         13.10711       25.37774        9.93578
H         14.86728       26.72679        9.52530
H         14.21093       27.91854       10.67014
N         14.49159       29.02822        8.01378
C         15.89649       29.21448        8.41108
C         16.01976       29.66808        9.85414
O         15.01783       30.10317       10.40530
C         16.56350       30.26239        7.48784
C         16.51824       29.85274        6.04322
O         17.07458       28.83076        5.67510
O         15.86647       30.61771        5.14635
H         14.14000       29.56714        7.20646
H         16.40258       28.23656        8.29546
H         17.62227       30.42403        7.75214
H         16.03518       31.23482        7.60881
N         17.17665       29.63413       10.58133
C         18.52218       29.22608       10.20103
C         18.71960       27.74463       10.00447
O         17.76150       26.99003        9.92824
H         17.10070       29.95533       11.54590
H         19.17952       29.47973       11.05859
H         18.91372       29.80608        9.34603
N         19.99850       27.26296        9.98103
C         20.34290       25.85874        9.77771
C         20.87150       25.17938       11.03717
O         21.00274       23.96270       11.00243
C         21.33436       25.70699        8.59637
C         22.64210       26.51250        8.76192
C         23.59211       26.24493        7.62273
N         23.95452       27.23384        6.77118
O         24.04428       25.12043        7.46844
H         20.76132       27.93569       10.14472
H         19.42132       25.29310        9.51915
H         20.83651       26.04910        7.66298
H         21.57553       24.62765        8.47726
H         23.14948       26.25075        9.71382
H         22.40895       27.59682        8.78158
H         23.58066       28.18866        6.87356
H         24.60617       27.04171        5.99584
N         21.17377       25.86047       12.18203
C         21.56201       25.19225       13.42923
C         23.02295       25.40068       13.78697
O         23.45923       24.84810       14.78651
C         20.62087       25.60875       14.59097
C         19.18961       25.16001       14.29014
C         20.65235       27.11973       14.89106
H         21.12636       26.88815       12.17695
H         21.47064       24.08885       13.31821
H         20.94617       25.07321       15.51059
H         18.53344       25.39123       15.15350
H         18.80359       25.67154       13.38267
H         19.15861       24.06236       14.12116
H         20.00429       27.34554       15.76441
H         21.68391       27.45028       15.13402
H         20.27479       27.71884       14.03679
N         23.85324       26.12330       12.98924
C         25.28704       26.23486       13.21221
C         25.66549       27.68180       13.40615
O         26.32271       27.99086       14.39170
C         26.02585       25.63007       12.00404
C         25.68528       24.16579       11.85363
N         25.04879       23.71164       10.74923
O         25.97800       23.38349       12.74598
H         23.47361       26.57058       12.14618
H         25.61308       25.66967       14.11532
H         27.12563       25.72606       12.13945
H         25.74479       26.18470       11.08268
H         24.78425       24.35407        9.98997
H         24.80848       22.71338       10.65756
N         25.27664       28.62864       12.50691
C         25.67740       30.02763       12.58845
C         24.46396       30.90723       12.80355
O         23.36213       30.39836       12.69983
C         26.31965       30.42449       11.23974
C         27.24979       29.35815       10.71523
C         28.44324       29.03793       11.37633
C         26.88655       28.64072        9.55928
C         29.26166       28.01401       10.88505
C         27.69935       27.61751        9.07633
C         28.88899       27.29916        9.73460
O         29.66102       26.30422        9.25519
H         24.68652       28.35167       11.70757
H         26.39391       30.17160       13.42646
H         26.81957       31.41448       11.30071
H         25.49023       30.52259       10.50335
H         28.73384       29.57502       12.27026
H         25.96140       28.85867        9.03813
H         30.18081       27.77234       11.40199
H         27.39746       27.06879        8.19264
H         30.49113       26.04710        9.67963
N         24.61304       32.25105       13.00605
C         23.55729       33.27043       13.00659
C         22.58177       33.22641       14.18156
O         22.55162       34.17846       14.94976
C         22.78897       33.28518       11.66391
C         23.73303       33.48774       10.47017
C         22.97024       33.53682        9.17908
O         22.23557       32.47854        8.78545
O         23.02436       34.53038        8.47226
H         25.57865       32.60792       13.07426
H         24.07252       34.25552       13.08507
H         22.05426       34.12092       11.68226
H         22.22245       32.33932       11.52667
H         24.45863       32.65230       10.41043
H         24.29923       34.43475       10.60767
N         21.68087       32.21817       14.32417
C         20.58250       32.23199       15.28166
C         21.03856       32.18026       16.73209
O         20.19636       32.36637       17.60038
C         19.63850       31.03558       15.01282
C         19.10473       30.93242       13.56373
C         18.15962       32.03913       13.19258
O         18.54457       33.19234       13.10221
O         16.88178       31.72096       12.91383
H         21.70738       31.45599       13.65776
H         20.02061       33.17901       15.13339
H         18.77800       31.07223       15.71629
H         20.20627       30.10246       15.22317
H         18.57644       29.96385       13.47407
H         19.90653       30.87342       12.80651
N         22.32973       31.90864       17.07997
C         22.78700       31.85600       18.45433
H         23.61214       32.58495       18.59220
H         21.98396       32.09928       19.18190
H         23.16398       30.83632       18.67796
H         23.02976       31.70693       16.35296
Ca        15.10642       32.97097       12.33646
O         16.51385       35.66921       12.35999
H         17.00116       35.17791       13.06703
H         17.21570       35.94220       11.71754
O         17.05283       32.96346        9.80393
H         18.00181       32.78138       10.01929
H         17.07908       33.41143        8.92132
O         13.06956       32.37070        9.71328
H         13.07919       31.84196        8.87614
H         12.62540       31.78276       10.37416
O         14.67770       35.01556        9.81606
H         15.25134       35.67004        9.34416
H         13.79906       35.46492        9.89558

Ca 1.0



