%chk=apoCaM-CA-Ng.loop2.water4.frame1311.chk
%nprocshared=20
%mem=10GB
%nosave
#b3lyp/svp scf=(tight,noincore,xqc) Test 
#IOP(5/87=12) Density=Current Pop=(MK,readradii) iop(6/33=2) iop(6/42=6)

apoCaM-CA-Ng.loop2.water4.frame1311 

   -2  1 
C         42.92061       24.53493       88.18443
C         43.09702       25.05962       89.58706
O         44.18180       24.89276       90.12586
H         42.69595       25.34457       87.46883
H         43.85435       24.04269       87.83727
H         42.11186       23.77526       88.16110
N         42.09597       25.66536       90.29468
C         40.74515       25.90573       89.77968
C         39.66362       26.01675       90.85965
O         38.52612       25.69717       90.54093
C         40.68642       27.11147       88.81321
C         41.11076       28.42582       89.41722
O         41.07080       29.43225       88.73171
O         41.55335       28.51576       90.68467
H         42.32167       25.89613       91.26952
H         40.44854       24.99243       89.21937
H         39.64608       27.21378       88.43546
H         41.33436       26.93646       87.93675
N         39.90738       26.44712       92.13322
C         38.90028       26.44355       93.18708
C         38.58310       27.84605       93.68404
O         37.93378       27.95567       94.71608
C         39.41582       25.56048       94.33140
H         40.84084       26.77854       92.40593
H         37.94155       25.99501       92.84648
H         39.60702       24.53217       93.95530
H         40.35925       25.96934       94.75217
H         38.66030       25.48988       95.14328
N         38.93238       28.96796       92.98314
C         38.61857       30.30724       93.47760
C         38.61626       31.39837       92.41065
O         38.98412       31.17759       91.26595
C         39.51207       30.67276       94.68922
C         40.93505       30.16306       94.59915
O         41.78811       30.45770       93.59530
O         41.32979       29.40593       95.47242
H         39.39022       28.86996       92.06752
H         37.55234       30.31316       93.79998
H         39.06792       30.18847       95.58730
H         39.49346       31.76449       94.88802
N         38.07687       32.60768       92.75093
C         37.84882       33.72864       91.85452
C         39.12360       34.36409       91.37406
O         39.97852       34.66527       92.19400
H         37.73195       32.72911       93.71585
H         37.30599       34.51186       92.42716
H         37.19330       33.42174       91.01083
N         39.28669       34.66119       90.05326
C         40.49255       35.27594       89.50765
C         40.20783       36.65329       88.92321
O         39.06941       37.10115       88.93268
C         41.06071       34.34581       88.42315
C         41.38559       32.96008       88.99051
N         41.82890       32.05306       87.93734
O         42.37774       33.07242       89.96600
H         38.52101       34.44127       89.39698
H         41.25652       35.41882       90.30358
H         41.98587       34.77272       87.98104
H         40.30696       34.23852       87.61214
H         41.05005       31.92541       87.25079
H         42.65683       32.45549       87.44114
N         41.23575       37.38487       88.40170
C         41.10007       38.70717       87.80580
C         41.96911       39.71280       88.53331
O         42.56061       39.35768       89.54388
H         42.18556       36.98359       88.42022
H         40.04689       39.06110       87.81229
H         41.44525       38.63548       86.75277
N         42.13926       40.99631       88.10281
C         41.54115       41.59113       86.90965
C         42.61607       42.01038       85.90465
O         42.27250       42.67549       84.93816
C         40.68832       42.81916       87.31980
C         39.51793       42.42089       88.22438
O         41.49518       43.76863       87.97048
H         42.76021       41.60354       88.66246
H         40.86834       40.88219       86.38340
H         40.25853       43.26391       86.39065
H         41.02766       44.64196       87.90202
H         38.86629       41.68701       87.70382
H         39.88218       41.97560       89.17357
H         38.90875       43.31823       88.46497
N         43.92778       41.65271       86.05213
C         45.00118       42.08141       85.15900
C         45.60902       40.83618       84.51470
O         46.62392       40.35797       85.00395
C         46.06114       42.88176       85.98701
C         45.39581       44.05353       86.75675
C         47.18801       43.39741       85.06386
C         46.35180       44.77931       87.70699
H         44.20592       41.05478       86.84384
H         44.63135       42.76528       84.36745
H         46.50266       42.19539       86.74495
H         44.57827       43.65510       87.39465
H         44.95364       44.78074       86.04208
H         47.98865       43.89752       85.64293
H         47.67996       42.56699       84.52022
H         46.78191       44.11070       84.31535
H         47.16972       45.28698       87.15908
H         45.79241       45.55589       88.26938
H         46.78548       44.06142       88.43634
N         45.04416       40.18427       83.45814
C         43.87005       40.61938       82.70784
C         44.17639       41.86312       81.87918
O         45.18721       41.89880       81.19133
C         43.39337       39.49488       81.76519
C         42.98587       38.27020       82.54299
O         43.54585       37.20327       82.34914
O         41.99782       38.34578       83.45654
H         45.49948       39.30541       83.16192
H         43.02266       40.80510       83.39840
H         44.19625       39.23725       81.03959
H         42.50487       39.84336       81.19422
N         43.28279       42.89038       81.84183
C         43.44687       44.09834       81.03352
C         44.50669       45.01785       81.63699
O         44.42011       45.26195       82.83266
C         42.11172       44.89159       81.03311
C         42.18356       46.11551       80.14676
C         42.18614       45.98316       78.74665
C         42.27048       47.39869       80.71356
C         42.28844       47.11483       77.93066
C         42.37991       48.52626       79.89418
C         42.39003       48.38476       78.50427
H         42.40485       42.77601       82.37009
H         43.66128       43.81277       79.98229
H         41.88759       45.19145       82.08130
H         41.26548       44.25661       80.69098
H         42.11843       45.00417       78.28853
H         42.27732       47.52511       81.78874
H         42.29650       47.00706       76.85359
H         42.46338       49.50997       80.33754
H         42.47843       49.25903       77.87219
N         45.43038       45.70149       80.88593
C         45.61837       45.60389       79.44964
C         46.44859       44.38198       79.08254
O         46.03498       43.63121       78.21106
C         46.24221       46.96468       79.09524
C         47.08103       47.31222       80.30660
C         46.20917       46.79429       81.45349
H         44.67451       45.56532       78.88068
H         46.74881       47.02633       78.10889
H         45.41096       47.70885       79.09287
H         48.02307       46.74460       80.24063
H         47.36926       48.38113       80.40105
H         46.83264       46.48975       82.32151
H         45.49063       47.58502       81.76557
N         47.61814       44.10522       79.72155
C         48.47400       42.96937       79.40281
C         49.03193       43.12513       77.99069
O         49.57114       44.18848       77.71563
C         49.65334       42.89898       80.39749
C         49.17794       42.65482       81.84156
C         50.33915       42.60287       82.78813
O         50.57622       41.48806       83.50440
O         51.06263       43.57648       82.92793
H         47.90815       44.71492       80.48909
H         47.88483       42.04785       79.53506
H         50.23883       43.84477       80.34516
H         50.32000       42.05748       80.10452
H         48.61987       41.69429       81.88379
H         48.49934       43.46176       82.18557
N         48.98378       42.16036       77.02211
C         48.47926       40.80731       77.16243
H         47.65301       40.64417       76.44076
H         49.29937       40.09596       76.92713
H         48.11879       40.54920       78.16898
H         49.37687       42.39386       76.09665
Ca        41.82817       31.65302       91.67272
O         44.87406       31.01917       93.53723
H         45.22028       30.14049       93.83442
H         44.46238       31.41034       94.34815
O         42.77684       33.93282       93.49814
H         42.57556       34.22291       92.57343
H         43.76455       33.87637       93.52611
O         44.89923       31.24971       90.34617
H         45.80409       31.30815       90.74403
H         45.02134       31.53863       89.40704
O         44.32529       28.39742       91.75834
H         43.80586       27.80896       92.36200
H         45.13015       27.86944       91.52726

Ca 1.0



