%chk=apoCaM-CA-Ng.loop4.water5.frame933.chk
%nprocshared=20
%mem=10GB
%nosave
#b3lyp/svp scf=(tight,noincore,xqc) Test 
#IOP(5/87=12) Density=Current Pop=(MK,readradii) iop(6/33=2) iop(6/42=6)

apoCaM-CA-Ng.loop4.water5.frame933 

   -3  1 
C        -15.25887      -13.30576       93.87226
C        -16.26329      -14.13066       94.62259
O        -17.22153      -14.59657       94.02528
H        -14.25935      -13.78409       93.93724
H        -15.53545      -13.22201       92.79968
H        -15.20731      -12.28727       94.31110
N        -16.07609      -14.39004       95.94662
C        -16.96975      -15.21039       96.76209
C        -17.20770      -16.55641       96.09211
O        -18.34511      -16.96860       95.90484
C        -18.28338      -14.46381       97.07980
C        -18.02547      -13.17740       97.81713
O        -17.38192      -13.19281       99.00000
O        -18.41330      -12.11544       97.35942
H        -15.21995      -14.02895       96.39536
H        -16.45738      -15.40505       97.73061
H        -18.91907      -15.10330       97.72882
H        -18.84262      -14.25946       96.14261
N        -16.14009      -17.26199       95.63800
C        -16.25458      -18.51533       94.90207
C        -16.65856      -19.63292       95.86612
O        -15.93540      -19.81355       96.83595
C        -14.89795      -18.80881       94.17878
C        -14.68646      -17.72928       93.07192
C        -14.86950      -20.22059       93.56581
C        -13.37012      -17.83789       92.30501
H        -15.20364      -16.84932       95.77279
H        -16.98137      -18.37787       94.08781
H        -14.07265      -18.75948       94.92429
H        -14.71338      -16.71551       93.52369
H        -15.51857      -17.78923       92.33463
H        -15.02057      -20.99324       94.34835
H        -15.64980      -20.32232       92.78554
H        -13.87959      -20.43733       93.11738
H        -12.51043      -17.74955       93.00013
H        -13.30513      -18.78985       91.74109
H        -13.31751      -17.01286       91.56236
N        -17.72810      -20.47828       95.69223
C        -18.68526      -20.48164       94.58618
C        -20.10324      -20.55649       95.12052
O        -20.41932      -21.48952       95.84715
C        -18.42211      -21.70055       93.68091
C        -19.24214      -21.69549       92.41046
O        -19.11041      -22.60682       91.61057
O        -20.09476      -20.69048       92.12418
H        -17.83348      -21.23641       96.38576
H        -18.58302      -19.58905       93.95307
H        -18.61493      -22.63787       94.24652
H        -17.35757      -21.70124       93.37953
N        -21.02418      -19.62583       94.75701
C        -22.41082      -19.66742       95.17250
C        -23.30572      -19.72074       93.95802
O        -23.33748      -20.72776       93.26528
H        -20.73869      -18.84630       94.14467
H        -22.60774      -18.74539       95.75920
H        -22.64562      -20.52956       95.83406
N        -24.05774      -18.63397       93.64805
C        -25.02244      -18.55522       92.55872
C        -24.48018      -18.97324       91.19104
O        -25.05746      -19.88581       90.61448
C        -25.70434      -17.15339       92.54941
C        -24.80447      -15.94082       92.40821
O        -23.78889      -15.71852       93.26453
O        -25.06140      -15.08940       91.57382
H        -23.96433      -17.82073       94.26935
H        -25.83838      -19.27752       92.78978
H        -26.22302      -17.03735       93.52408
H        -26.48194      -17.12905       91.75353
N        -23.43824      -18.34128       90.58034
C        -23.06372      -18.60353       89.18726
C        -23.44029      -17.42987       88.28794
O        -23.25801      -17.51574       87.08251
H        -22.94869      -17.58722       91.08455
H        -23.60254      -19.48990       88.78753
H        -21.97619      -18.82161       89.12280
N        -23.99246      -16.30524       88.82377
C        -24.46927      -15.12382       88.12650
C        -23.37609      -14.39894       87.36685
O        -23.66650      -13.72797       86.38728
C        -25.76523      -15.39255       87.33322
C        -26.81727      -16.07925       88.23392
C        -28.19919      -16.14321       87.63459
N        -29.19915      -16.73639       88.32789
O        -28.43215      -15.64915       86.54108
H        -24.10330      -16.25549       89.83201
H        -24.77050      -14.40088       88.91871
H        -25.57265      -16.02362       86.43909
H        -26.15854      -14.40707       86.99844
H        -26.90690      -15.52238       89.19173
H        -26.47703      -17.11405       88.46024
H        -29.01939      -17.15850       89.25140
H        -30.15519      -16.77365       87.94464
N        -22.08946      -14.44883       87.81583
C        -20.98938      -13.68917       87.22984
C        -20.23241      -12.88223       88.28377
O        -19.28848      -12.19944       87.90412
C        -20.02580      -14.63744       86.46652
C        -19.45913      -15.75744       87.35537
C        -20.72483      -15.23561       85.23795
H        -21.87114      -15.06747       88.60911
H        -21.37539      -12.95052       86.49286
H        -19.17313      -14.03246       86.08493
H        -18.93053      -15.33140       88.23363
H        -20.26465      -16.43344       87.71264
H        -18.73434      -16.36822       86.77733
H        -21.08472      -14.42037       84.57303
H        -20.01373      -15.86023       84.65789
H        -21.59226      -15.86134       85.53387
N        -20.56566      -12.89966       89.60891
C        -19.82515      -12.17732       90.62969
C        -20.71869      -11.16914       91.31520
O        -21.72000      -11.55631       91.90605
C        -19.28563      -13.16074       91.68541
C        -18.64939      -12.40340       92.82627
N        -19.17983      -12.46765       94.06955
O        -17.67185      -11.70090       92.61870
H        -21.37333      -13.44723       89.93752
H        -18.94881      -11.64802       90.19283
H        -18.54621      -13.85650       91.23204
H        -20.12819      -13.77292       92.07680
H        -20.01525      -13.03930       94.26267
H        -18.76195      -11.93464       94.84222
N        -20.35588       -9.85848       91.34972
C        -21.02957       -8.87952       92.19043
C        -20.46843       -7.49729       91.95255
O        -19.25460       -7.34420       91.95492
C        -20.80363       -9.21993       93.68608
C        -21.51007       -8.22886       94.58141
C        -22.91023       -8.12646       94.54746
C        -20.78084       -7.39060       95.44157
C        -23.57063       -7.19883       95.35501
C        -21.44504       -6.46221       96.24936
C        -22.83929       -6.36182       96.20868
O        -23.46442       -5.46061       96.99222
H        -19.52817       -9.56493       90.80558
H        -22.11669       -8.88243       91.95874
H        -19.70823       -9.21420       93.88823
H        -21.17733      -10.23332       93.93391
H        -23.49071       -8.76365       93.89257
H        -19.70049       -7.44791       95.48191
H        -24.65014       -7.13172       95.31426
H        -20.87732       -5.81782       96.90708
H        -24.42729       -5.36216       96.99372
N        -21.30190       -6.42501       91.85054
C        -20.81216       -5.06235       91.73981
C        -21.21371       -4.28771       92.98830
O        -22.39534       -3.99942       93.12317
C        -21.38713       -4.42234       90.46329
C        -20.89311       -2.98747       90.24401
C        -21.51526       -2.40481       89.00866
O        -20.81385       -2.04030       88.07914
O        -22.85370       -2.27290       88.92496
H        -22.32146       -6.57431       91.91334
H        -19.72063       -5.07151       91.63265
H        -22.49878       -4.42739       90.52686
H        -21.09142       -5.04306       89.58848
H        -19.78491       -2.99236       90.15040
H        -21.17268       -2.34575       91.10626
N        -20.34509       -3.93190       93.98478
C        -18.94382       -4.33549       94.09374
C        -18.05911       -3.78182       92.99127
O        -17.97579       -2.57521       92.81495
C        -18.38738       -3.96753       95.49892
C        -16.87744       -4.23480       95.68135
C        -16.42415       -5.53913       95.03107
O        -16.99976       -6.68978       95.57519
O        -15.03650       -5.68783       95.04464
H        -20.74799       -3.40957       94.77968
H        -18.91407       -5.44525       94.04765
H        -18.95245       -4.57137       96.24004
H        -18.56604       -2.89452       95.73360
H        -16.60141       -4.18251       96.75750
H        -16.32792       -3.42563       95.15409
N        -17.31686       -4.65726       92.24862
C        -16.38402       -4.28100       91.21268
H        -15.37144       -4.64438       91.49399
H        -16.68053       -4.77322       90.26262
H        -16.34297       -3.18473       91.06079
H        -17.39170       -5.66596       92.44258
Ca       -15.07633       -7.90174       95.49672
O        -17.34116       -9.85909       95.52242
H        -16.74843      -10.58857       95.83346
H        -17.17788       -9.80988       94.54742
O        -13.07344       -6.32215       93.01844
H        -12.94662       -5.35478       93.18862
H        -12.76492       -6.76258       93.85024
O        -14.89613       -8.90719       98.12105
H        -13.96533       -8.79858       97.79951
H        -15.18877       -9.77318       97.74024
O        -16.53236       -8.35469       92.11478
H        -16.57989       -7.71216       91.36304
H        -16.57647       -9.24306       91.68037
O        -13.68689       -9.35481       92.11675
H        -13.97574       -9.17603       91.18652
H        -12.70338       -9.44858       92.05647

Ca 1.0



