%chk=apoCaM-CA-Ng.loop2.water3.frame215.chk
%nprocshared=20
%mem=10GB
%nosave
#b3lyp/svp scf=(tight,noincore,xqc) Test 
#IOP(5/87=12) Density=Current Pop=(MK,readradii) iop(6/33=2) iop(6/42=6)

apoCaM-CA-Ng.loop2.water3.frame215 

   -2  1 
C         14.64405       17.21016       77.11490
C         13.33689       16.50309       77.33701
O         13.04234       15.54449       76.63752
H         15.22420       16.73270       76.29670
H         14.45750       18.27229       76.85146
H         15.25006       17.17178       78.04574
N         12.50803       16.91947       78.33259
C         11.24422       16.26601       78.65571
C         10.22939       16.42942       77.53722
O         10.03384       17.53726       77.05526
C         10.66659       16.83879       79.96271
C          9.43590       16.08472       80.39329
O          8.25995       16.72638       80.52292
O          9.49797       14.88696       80.62492
H         12.81729       17.71463       78.91409
H         11.44485       15.18736       78.84638
H         10.42816       17.91679       79.83222
H         11.42528       16.74216       80.76941
N          9.48838       15.36005       77.13343
C          8.47769       15.43512       76.08627
C          9.14761       15.70756       74.76460
O         10.11705       15.02913       74.45066
C          7.69595       14.12020       76.00267
H          9.63498       14.45722       77.61082
H          7.73270       16.22699       76.32875
H          6.91017       14.19589       75.21932
H          8.36618       13.26844       75.76299
H          7.19362       13.92290       76.97443
N          8.66377       16.65743       73.91683
C          9.30103       16.96433       72.64705
C          8.48312       16.36682       71.52274
O          7.99425       17.08507       70.66076
C          9.50674       18.48791       72.53512
C         10.35038       18.83992       71.34323
O         11.60189       18.35229       71.24357
O          9.91435       19.57142       70.46903
H          7.79198       17.15380       74.16031
H         10.30495       16.48732       72.59362
H         10.03727       18.85313       73.43981
H          8.51866       18.99877       72.48364
N          8.34491       15.01224       71.45638
C          7.63862       14.33701       70.38653
C          8.58740       13.63367       69.43901
O          8.09098       13.05854       68.48109
H          8.80318       14.42383       72.16918
H          7.05286       15.05915       69.77950
H          6.91587       13.61456       70.82637
N          9.94903       13.64400       69.60829
C         10.86610       13.02329       68.65870
C         11.59325       11.86552       69.30958
O         12.34047       12.07097       70.25720
C         11.88513       14.05351       68.13397
C         12.79682       13.41685       67.10908
N         14.12512       13.29883       67.33716
O         12.32270       12.98248       66.07006
H         10.36434       14.10647       70.43032
H         10.29930       12.63991       67.78329
H         12.47834       14.44964       68.98915
H         11.35818       14.91158       67.66379
H         14.54331       13.64641       68.20891
H         14.73741       12.84229       66.64520
N         11.41124       10.60396       68.83322
C         12.09002        9.44721       69.37802
C         13.53058        9.38683       68.93492
O         13.76496        9.28771       67.73888
H         10.73288       10.44699       68.07245
H         11.61201        8.52939       68.97225
H         11.97309        9.42416       70.48232
N         14.54776        9.39395       69.84262
C         15.93757        9.13298       69.47319
C         16.79464       10.38611       69.51248
O         17.57006       10.56022       68.57860
C         16.53120        7.93998       70.27443
C         16.65301        8.15499       71.78998
O         15.79995        6.76651       70.01209
H         14.32151        9.53785       70.83714
H         15.98776        8.78665       68.41580
H         17.56308        7.76772       69.89481
H         14.91173        6.85459       70.44750
H         15.66014        8.30013       72.26095
H         17.12575        7.25941       72.24917
H         17.29013        9.02918       72.01484
N         16.71703       11.31434       70.51192
C         17.54227       12.52732       70.52233
C         16.70494       13.78817       70.42266
O         15.48227       13.71032       70.50466
C         18.52454       12.52351       71.73077
C         17.86291       12.37856       73.12921
C         19.53934       11.38239       71.53837
C         17.00145       13.56567       73.55852
H         16.04295       11.16515       71.27888
H         18.16916       12.56290       69.60315
H         19.11439       13.46597       71.71827
H         18.67436       12.29924       73.88465
H         17.26531       11.44414       73.18960
H         20.07681       11.50279       70.57327
H         20.29562       11.39239       72.35075
H         19.04087       10.39342       71.53624
H         16.10129       13.67413       72.92942
H         16.64902       13.40292       74.59876
H         17.59782       14.50239       73.52951
N         17.30039       14.98814       70.15425
C         16.53703       16.20549       69.89795
C         17.37111       17.21160       69.09779
O         17.44018       18.37606       69.45123
C         15.99356       16.77143       71.23738
C         15.04223       17.93396       71.10733
O         14.69749       18.35753       70.01530
O         14.55067       18.50638       72.22283
H         18.32498       15.00272       70.01367
H         15.69028       15.93396       69.22790
H         16.85892       17.08248       71.86331
H         15.44779       15.97421       71.78339
N         18.02372       16.79620       67.97170
C         18.75269       17.66973       67.04951
C         19.80314       18.53537       67.74613
O         20.64832       17.97652       68.43387
C         19.48557       16.79919       65.99829
C         20.17470       17.64793       64.95787
C         19.41757       18.33629       63.99635
C         21.57502       17.77237       64.95014
C         20.05113       19.13909       63.04362
C         22.20375       18.58563       64.00273
C         21.44264       19.26732       63.04945
H         17.97593       15.79194       67.74301
H         18.00937       18.30279       66.52559
H         18.78868       16.10106       65.48620
H         20.23240       16.17485       66.53934
H         18.33825       18.24913       63.98581
H         22.17827       17.25797       65.68810
H         19.46225       19.66533       62.30395
H         23.28106       18.69009       64.00986
H         21.93089       19.89563       62.31609
N         19.87923       19.89456       67.55856
C         20.96362       20.71178       68.08258
C         20.79605       21.03103       69.55863
O         21.70141       21.61750       70.13363
C         20.89235       21.97734       67.21656
C         19.39827       22.12094       67.00088
C         18.98536       20.67754       66.72356
H         21.94969       20.22122       67.92262
H         21.40931       22.87125       67.62734
H         21.33452       21.74666       66.21971
H         18.95036       22.43717       67.96981
H         19.08674       22.84472       66.21747
H         17.91287       20.54885       66.98331
H         19.16627       20.40975       65.66326
N         19.64715       20.72659       70.22335
C         19.42597       21.06730       71.62206
C         20.10060       20.07201       72.55125
O         20.17152       20.34672       73.74188
C         17.91559       21.06535       71.92606
C         17.14409       22.07654       71.06081
C         15.67225       21.88190       71.24509
O         14.92535       21.48453       70.19818
O         15.15585       22.03312       72.34056
H         18.87250       20.30931       69.69778
H         19.81862       22.09263       71.80814
H         17.73779       21.30296       72.99832
H         17.52616       20.04101       71.72650
H         17.36307       21.91455       69.98516
H         17.43963       23.11663       71.31685
N         20.55281       18.86468       72.10511
C         21.12646       17.88317       72.99893
H         22.05156       18.28492       73.46171
H         20.39437       17.62153       73.79359
H         21.37569       16.95849       72.43579
H         20.45511       18.60326       71.11377
Ca        12.77263       20.90098       70.48391
O         12.39753       20.78532       67.52708
H         12.00967       19.90080       67.30929
H         11.61365       21.36242       67.70954
O         11.90626       23.68880       70.64769
H         12.70224       23.74504       70.06094
H         11.24084       23.18467       70.11450
O         12.27304       21.42052       73.40629
H         11.52924       22.07312       73.37166
H         11.93479       20.68526       73.97624

Ca 1.0



