%chk=apoCaM-CA-Ng.loop2.water4.frame750.chk
%nprocshared=20
%mem=10GB
%nosave
#b3lyp/svp scf=(tight,noincore,xqc) Test 
#IOP(5/87=12) Density=Current Pop=(MK,readradii) iop(6/33=2) iop(6/42=6)

apoCaM-CA-Ng.loop2.water4.frame750 

   -2  1 
C        -15.32070       33.18276       22.11858
C        -15.55506       34.61795       21.75328
O        -16.46536       35.22962       22.29506
H        -14.30514       33.06873       22.55079
H        -16.06885       32.84057       22.86601
H        -15.40867       32.54660       21.21285
N        -14.77658       35.22114       20.81102
C        -14.97915       36.60678       20.40651
C        -14.63255       37.53248       21.55732
O        -13.47502       37.57315       21.95497
C        -14.12326       36.93519       19.16657
C        -14.37050       38.33346       18.67292
O        -15.60705       38.70598       18.29033
O        -13.45207       39.13479       18.61028
H        -14.04430       34.65980       20.34786
H        -16.04677       36.72405       20.11470
H        -14.38535       36.22939       18.34898
H        -13.04412       36.79966       19.40447
N        -15.59776       38.28993       22.15766
C        -15.31921       39.17813       23.28682
C        -14.71719       38.39830       24.44929
O        -14.79645       37.17657       24.43755
C        -16.61523       39.88621       23.71330
H        -16.56333       38.22236       21.80090
H        -14.57254       39.92653       22.94070
H        -17.37639       39.13418       24.01127
H        -16.47739       40.57568       24.56647
H        -17.01160       40.47633       22.86000
N        -13.99959       38.98160       25.45189
C        -13.75814       40.41106       25.63701
C        -12.36082       40.79656       25.17261
O        -11.62077       39.94803       24.69841
C        -14.01839       40.80569       27.11909
C        -12.99581       40.22937       28.07105
O        -12.87308       38.89662       28.21459
O        -12.25709       40.97313       28.69588
H        -13.54060       38.33399       26.09906
H        -14.44010       41.00626       25.00905
H        -15.03745       40.48501       27.42504
H        -13.99056       41.91229       27.20950
N        -11.94498       42.08877       25.28107
C        -10.64188       42.57620       24.86318
C        -10.54644       42.74334       23.35576
O        -11.46143       43.32891       22.79413
H        -12.57593       42.77616       25.71809
H         -9.83685       41.97346       25.32751
H        -10.53946       43.60761       25.26449
N         -9.45598       42.37620       22.61522
C         -8.26640       41.73202       23.16473
C         -8.53654       40.25371       23.36531
O         -9.54772       39.75689       22.88839
C         -7.04370       41.91917       22.23667
C         -6.65189       43.37488       22.08610
N         -5.43229       43.80816       22.48531
O         -7.43661       44.16997       21.59081
H         -9.46010       42.62173       21.61252
H         -8.00514       42.21197       24.13274
H         -7.25723       41.49202       21.23282
H         -6.18188       41.36285       22.66457
H         -4.74745       43.16116       22.90217
H         -5.16872       44.79917       22.37675
N         -7.68003       39.48475       24.09254
C         -7.96442       38.08206       24.34133
C         -7.00588       37.50288       25.35188
O         -5.82561       37.37748       25.06340
H         -6.85426       39.92645       24.52550
H         -7.93145       37.50093       23.39423
H         -8.99573       38.00882       24.74716
N         -7.46544       37.17541       26.59295
C         -6.63312       36.65339       27.67319
C         -7.26250       35.38893       28.24493
O         -8.30747       34.97402       27.76502
C         -6.49987       37.73652       28.77142
C         -5.80169       38.99195       28.23597
O         -7.76944       38.07319       29.26948
H         -8.45664       37.35647       26.81033
H         -5.61367       36.40314       27.30731
H         -5.86817       37.33069       29.59303
H         -7.62819       38.48513       30.16121
H         -4.79514       38.73078       27.84486
H         -6.39305       39.46365       27.42362
H         -5.67905       39.73145       29.05476
N         -6.69041       34.74638       29.31055
C         -7.30665       33.59536       29.95976
C         -7.70242       33.99500       31.37539
O         -6.83818       34.20830       32.21236
C         -6.34099       32.37147       29.97465
C         -6.93486       31.12201       30.69037
C         -5.85648       32.01197       28.55960
C         -8.10707       30.44526       29.97202
H         -5.81154       35.10708       29.70592
H         -8.21978       33.30100       29.40612
H         -5.44121       32.67066       30.55707
H         -7.25875       31.39796       31.71706
H         -6.13147       30.36183       30.79813
H         -5.14759       31.15750       28.60773
H         -6.70551       31.74269       27.89781
H         -5.32209       32.86875       28.09977
H         -8.44920       29.57225       30.56473
H         -8.95781       31.13604       29.85447
H         -7.80361       30.06481       28.97612
N         -9.02015       34.09943       31.69770
C         -9.55138       34.34112       33.02738
C        -10.41192       33.16014       33.48258
O        -10.94464       33.23456       34.58201
C        -10.37503       35.64077       33.01137
C         -9.50868       36.81890       32.66476
O         -8.46781       37.14962       33.45227
O         -9.74313       37.48263       31.67074
H         -9.71001       34.00024       30.95685
H         -8.73074       34.45130       33.76992
H        -10.81890       35.82683       34.01270
H        -11.20543       35.54337       32.27560
N        -10.54565       32.01698       32.73461
C        -11.24254       30.82194       33.19950
C        -12.27986       30.34444       32.17362
O        -12.16011       29.23189       31.67919
C        -10.14445       29.78839       33.55122
C        -10.60303       28.46838       34.12921
C        -11.60459       28.39812       35.11545
C         -9.96912       27.28117       33.71700
C        -11.97341       27.16491       35.66067
C        -10.32677       26.05360       34.28151
C        -11.33154       25.99486       35.24912
H        -10.05248       31.92972       31.83663
H        -11.78659       31.03570       34.14072
H         -9.50988       30.26461       34.33008
H         -9.48815       29.61111       32.67254
H        -12.10896       29.28679       35.46580
H         -9.17650       27.30598       32.97872
H        -12.75173       27.11839       36.41096
H         -9.81907       25.14840       33.97372
H        -11.60831       25.04377       35.68485
N        -13.35633       31.12339       31.82739
C        -14.43223       30.74105       30.90945
C        -13.96950       30.18777       29.57315
O        -14.46653       29.15896       29.13910
C        -15.17308       32.06808       30.67469
C        -15.05167       32.72989       32.02290
C        -13.59599       32.44543       32.37726
H        -15.09894       30.01099       31.42159
H        -14.60278       32.71130       29.96490
H        -16.20750       31.95628       30.28597
H        -15.33255       33.80393       32.06013
H        -15.70526       32.16284       32.72455
H        -12.89849       33.16206       31.89067
H        -13.49712       32.48884       33.48240
N        -13.00759       30.84741       28.87712
C        -12.51516       30.48445       27.55162
C        -12.12707       29.02158       27.49904
O        -12.63192       28.31121       26.64050
C        -11.30824       31.35110       27.07102
C        -11.52914       32.88289       27.08700
C        -11.25920       33.51045       28.42741
O        -11.44317       34.70183       28.60595
O        -10.73940       32.77570       29.42010
H        -12.63475       31.66221       29.34701
H        -13.34196       30.65429       26.82582
H        -11.13987       31.06047       26.01105
H        -10.36918       31.10549       27.61523
H        -12.55441       33.11186       26.72683
H        -10.80163       33.36178       26.39686
N        -11.26874       28.49562       28.41688
C        -10.89459       27.09559       28.44259
H         -9.79004       27.00775       28.39584
H        -11.25509       26.63700       29.38755
H        -11.32709       26.52458       27.59347
H        -10.88818       29.10473       29.15663
Ca       -11.12930       37.91086       29.24467
O        -12.72934       37.92150       31.73821
H        -13.67193       38.18310       31.58953
H        -12.29353       38.74157       32.08165
O         -9.71489       40.32639       30.67275
H         -9.56827       40.81058       29.82220
H        -10.69885       40.25314       30.75112
O        -12.14312       36.31257       26.56104
H        -11.96573       36.43854       25.59634
H        -12.96323       35.75790       26.59633
O         -9.62329       39.82554       27.34734
H         -9.99694       39.25715       26.62936
H         -8.79551       40.20564       26.96099

Ca 1.0



