%chk=apoCaM-CA-Ng.loop2.water3.frame322.chk
%nprocshared=20
%mem=10GB
%nosave
#b3lyp/svp scf=(tight,noincore,xqc) Test 
#IOP(5/87=12) Density=Current Pop=(MK,readradii) iop(6/33=2) iop(6/42=6)

apoCaM-CA-Ng.loop2.water3.frame322 

   -2  1 
C         24.99585       91.04915       47.48369
C         24.77505       92.46647       47.92446
O         25.06774       92.77557       49.06877
H         26.06944       90.78829       47.58847
H         24.39210       90.36799       48.12050
H         24.69413       90.89987       46.42575
N         24.27292       93.39403       47.06236
C         23.99678       94.77327       47.45175
C         22.84202       94.79776       48.44234
O         21.77027       94.31151       48.10485
C         23.65183       95.60754       46.19602
C         23.47829       97.08221       46.46169
O         23.22077       97.83012       45.53242
O         23.62174       97.59633       47.69906
H         24.08836       93.10609       46.08843
H         24.91979       95.21163       47.89335
H         22.72570       95.21093       45.72490
H         24.48393       95.50171       45.46556
N         22.97975       95.35821       49.68041
C         21.87673       95.39520       50.64045
C         21.48341       94.00741       51.11705
O         20.39720       93.85835       51.65905
C         22.24554       96.24043       51.86291
H         23.88147       95.79248       49.93053
H         21.00549       95.87140       50.13721
H         22.50973       97.27133       51.54756
H         21.38866       96.29688       52.56846
H         23.11455       95.79180       52.39247
N         22.35012       92.95969       51.00666
C         22.08510       91.59834       51.44504
C         21.79476       91.59195       52.94079
O         20.79228       91.03320       53.36631
C         20.95095       91.00986       50.56944
C         20.80667       89.51783       50.60251
O         19.93842       88.99472       49.92246
O         21.65593       88.73463       51.28823
H         23.28115       93.13037       50.61365
H         23.01677       91.01691       51.26086
H         21.16680       91.26009       49.50759
H         19.98253       91.48145       50.84091
N         22.60155       92.29623       53.79064
C         22.24434       92.52864       55.17992
C         22.70231       91.44656       56.12765
O         22.25593       91.47436       57.26592
H         23.38591       92.83882       53.39766
H         21.14342       92.67081       55.25439
H         22.69547       93.48374       55.52802
N         23.64545       90.52038       55.78151
C         24.13815       89.51278       56.71567
C         25.56840       89.83345       57.10957
O         26.42949       89.90639       56.24306
C         24.07894       88.11361       56.08229
C         24.53045       87.07590       57.08351
N         25.69271       86.40464       56.91284
O         23.85255       86.86620       58.07842
H         24.07640       90.56351       54.84570
H         23.50876       89.49856       57.63294
H         24.73598       88.10294       55.18545
H         23.04770       87.87174       55.74593
H         26.29678       86.59070       56.10172
H         26.00786       85.71854       57.61407
N         25.89026       90.03328       58.41860
C         27.23596       90.34941       58.85816
C         28.18127       89.18437       58.67927
O         27.97437       88.16174       59.31750
H         25.14769       89.99137       59.13353
H         27.22009       90.58843       59.94435
H         27.59043       91.25401       58.32101
N         29.26035       89.28195       57.84772
C         30.28847       88.24378       57.74272
C         30.26945       87.51544       56.40164
O         30.98786       86.53248       56.27225
C         31.69008       88.84685       58.04619
C         32.16538       89.88643       57.01085
O         31.71874       89.39910       59.33962
H         29.36587       90.14023       57.28858
H         30.09333       87.45690       58.50394
H         32.43307       88.02016       58.02603
H         31.20782       90.25103       59.32139
H         33.18408       90.24192       57.27198
H         32.21417       89.43649       56.00373
H         31.49604       90.76998       56.97047
N         29.48460       87.92390       55.36570
C         29.38441       87.23332       54.08303
C         27.92942       86.90185       53.81817
O         27.08437       87.78617       53.87191
C         30.00398       88.11153       52.95440
C         31.55659       88.13979       53.04122
C         29.56653       87.67926       51.54084
C         32.26055       86.80411       52.73453
H         28.92431       88.78186       55.47059
H         29.93296       86.27185       54.09527
H         29.62934       89.15113       53.08721
H         31.86372       88.47081       54.04879
H         31.93758       88.88719       52.31291
H         30.05199       88.32256       50.77702
H         29.81083       86.61579       51.34178
H         28.47340       87.81179       51.41944
H         31.98134       86.00327       53.44702
H         32.04077       86.46099       51.70250
H         33.35920       86.94065       52.80840
N         27.58728       85.63539       53.44966
C         26.24645       85.24845       53.03483
C         25.97569       83.76683       53.36741
O         25.01443       83.20173       52.86932
C         26.14157       85.54818       51.52139
C         24.73998       85.51299       50.98087
O         23.69351       85.24667       51.78360
O         24.54257       85.77401       49.80481
H         28.35659       84.97066       53.26873
H         25.49115       85.88361       53.54980
H         26.79853       84.85644       50.95583
H         26.49779       86.58313       51.33761
N         26.78728       83.07798       54.22509
C         26.66297       81.65129       54.51398
C         27.01946       80.83309       53.27366
O         28.09632       81.05664       52.73833
C         27.67815       81.27864       55.62508
C         27.67576       79.80028       55.93139
C         26.58335       79.19782       56.57637
C         28.77249       79.00779       55.55051
C         26.58927       77.82178       56.83035
C         28.77037       77.63384       55.79772
C         27.68014       77.04049       56.43770
H         27.53742       83.58573       54.71249
H         25.64346       81.42800       54.89228
H         27.47716       81.85120       56.55692
H         28.69034       81.57851       55.27193
H         25.72973       79.79126       56.87955
H         29.62184       79.45014       55.04453
H         25.74653       77.35940       57.32725
H         29.61364       77.03002       55.48860
H         27.68147       75.97527       56.62774
N         26.23692       79.81186       52.79892
C         26.68261       78.91171       51.74491
C         26.52179       79.50339       50.35740
O         26.95195       78.86686       49.40404
C         25.79867       77.67938       51.95119
C         24.48894       78.31240       52.38123
C         24.96884       79.38837       53.35616
H         27.74607       78.61764       51.89194
H         25.74612       76.98160       51.08788
H         26.18690       77.11613       52.83147
H         24.05363       78.81212       51.48605
H         23.73214       77.61642       52.80060
H         24.21860       80.20625       53.41092
H         25.14868       78.95837       54.36098
N         25.89567       80.69426       50.15372
C         25.75509       81.29456       48.83594
C         27.11999       81.72129       48.33878
O         27.53332       81.28371       47.27443
C         24.79516       82.49893       48.89108
C         23.36709       82.05915       49.26595
C         22.43176       83.22734       49.35579
O         22.23277       83.93832       48.38378
O         21.78908       83.48191       50.51121
H         25.49234       81.19185       50.96019
H         25.30931       80.55852       48.12795
H         24.76277       82.98770       47.89214
H         25.17239       83.23059       49.63145
H         23.36772       81.53990       50.24746
H         22.98305       81.35126       48.50021
N         27.88759       82.56501       49.08243
C         29.20229       82.99266       48.65987
H         29.86557       82.11090       48.53240
H         29.13056       83.54831       47.70133
H         29.64543       83.66206       49.42825
H         27.53471       82.90344       49.98861
Ca        21.44693       86.53862       50.83822
O         21.38283       87.02958       47.57925
H         22.27102       86.98341       47.14391
H         20.96143       87.84081       47.19866
O         20.25993       85.27217       53.19727
H         19.41632       85.29436       52.67917
H         20.34669       86.18655       53.56768
O         19.00255       85.13114       49.81311
H         19.22419       84.17024       49.89967
H         18.48294       85.19200       48.97305

Ca 1.0



