%chk=apoCaM-CA-Ng.loop2.water3.frame525.chk
%nprocshared=20
%mem=10GB
%nosave
#b3lyp/svp scf=(tight,noincore,xqc) Test 
#IOP(5/87=12) Density=Current Pop=(MK,readradii) iop(6/33=2) iop(6/42=6)

apoCaM-CA-Ng.loop2.water3.frame525 

   -2  1 
C         67.17747        4.90696       50.46911
C         67.04094        3.62293       49.70254
O         66.33090        3.58543       48.70785
H         68.23977        5.22770       50.48040
H         66.55974        5.71024       50.01455
H         66.83603        4.75170       51.51577
N         67.67397        2.50472       50.14732
C         67.53091        1.20035       49.51169
C         68.25231        1.16204       48.16943
O         69.44512        1.42595       48.13131
C         68.09054        0.10605       50.45068
C         67.76856       -1.30302       50.01595
O         68.17879       -2.33470       50.77695
O         67.11413       -1.52717       49.00936
H         68.22476        2.57845       51.01792
H         66.44362        0.98906       49.39787
H         67.63333        0.23653       51.45589
H         69.19150        0.22225       50.55450
N         67.60479        0.76811       47.03633
C         68.28377        0.61207       45.74965
C         68.67258        1.96129       45.14931
O         67.90775        2.90005       45.31723
C         67.38144       -0.13349       44.76244
H         66.61289        0.49482       47.11220
H         69.17133       -0.03302       45.91828
H         66.44886        0.43676       44.56989
H         67.91126       -0.29458       43.79914
H         67.11782       -1.12958       45.17909
N         69.81067        2.16772       44.41209
C         70.77138        1.12755       44.06252
C         71.90036        1.05756       45.11163
O         72.87696        2.03381       44.89234
C         71.24778        1.21735       42.58379
C         71.92982        2.49162       42.12453
O         72.08160        3.56132       42.92683
O         72.33911        2.55945       40.97677
H         69.98654        3.12485       44.07626
H         70.25677        0.14915       44.10625
H         70.36502        1.07360       41.92422
H         71.94863        0.37328       42.40210
N         72.48994       -0.29027       45.15126
C         73.71153       -0.39142       45.96383
C         73.54929        0.04426       47.41435
O         72.45392        0.40995       47.81631
H         71.77545       -0.95383       45.53293
H         74.50023        0.23087       45.48913
H         74.05196       -1.44886       45.94018
N         74.61021        0.07946       48.27553
C         75.96197       -0.35528       47.93139
C         76.91167        0.82269       47.82741
O         76.54752        1.94577       48.14674
C         76.47742       -1.35680       48.98708
C         75.62951       -2.59996       49.06892
N         75.02171       -2.94868       50.22760
O         75.50654       -3.31135       48.08312
H         74.45260        0.45214       49.22573
H         75.98188       -0.84458       46.93863
H         76.50924       -0.84931       49.97710
H         77.51184       -1.67473       48.74012
H         75.11913       -2.36876       51.07393
H         74.45593       -3.80854       50.28275
N         78.17182        0.61386       47.35030
C         79.19041        1.64201       47.22840
C         78.92693        2.71271       46.18635
O         79.79049        3.56764       46.04866
H         78.44690       -0.34551       47.09183
H         80.14287        1.14956       46.93728
H         79.34356        2.12029       48.22027
N         77.78483        2.77433       45.43872
C         77.51459        3.87769       44.52296
C         76.60454        4.83533       45.24441
O         75.50054        4.44536       45.59609
C         76.90572        3.38189       43.18837
C         77.87637        2.48154       42.42550
O         75.71462        2.66793       43.41722
H         77.03214        2.09074       45.59328
H         78.45269        4.42333       44.27940
H         76.71066        4.26841       42.53612
H         74.95714        3.26339       43.17749
H         78.11710        1.57367       43.01808
H         77.41641        2.16529       41.46475
H         78.81539        3.03087       42.20227
N         77.02996        6.09621       45.55397
C         76.24396        7.00037       46.37807
C         75.80859        8.17017       45.52797
O         76.64428        8.94546       45.08348
C         77.04222        7.45757       47.63673
C         76.11766        8.29153       48.56163
C         77.62135        6.23994       48.38610
C         76.81472        8.88675       49.78662
H         77.95292        6.41870       45.22397
H         75.33834        6.47249       46.74385
H         77.90031        8.08554       47.30693
H         75.27525        7.65336       48.90013
H         75.69461        9.13976       47.98633
H         76.81011        5.57659       48.74879
H         78.29293        5.65397       47.72421
H         78.24266        6.55609       49.24747
H         76.08361        9.48867       50.36612
H         77.20084        8.09775       50.46243
H         77.64763        9.54990       49.47215
N         74.48991        8.33095       45.23871
C         73.97755        9.42164       44.42825
C         74.19425       10.73071       45.15854
O         74.85757       11.61276       44.63125
C         72.46891        9.21795       44.14114
C         72.15587        7.94191       43.39939
O         70.99554        7.67743       43.13008
O         73.12802        7.08043       43.03838
H         73.82380        7.63209       45.59174
H         74.50734        9.43585       43.44884
H         72.09678       10.07244       43.53558
H         71.90258        9.18706       45.09394
N         73.63337       10.92046       46.38586
C         73.74095       12.15693       47.14739
C         72.70799       12.11317       48.27919
O         73.08151       12.20623       49.43841
C         75.19048       12.29929       47.69297
C         75.51424       13.55327       48.48564
C         74.69561       14.70234       48.49832
C         76.69475       13.55716       49.25099
C         75.05633       15.81873       49.26112
C         77.04238       14.66963       50.02193
C         76.22476       15.80053       50.02584
H         73.06801       10.15177       46.77831
H         73.49005       13.01048       46.48211
H         75.93704       12.22396       46.87453
H         75.35140       11.42785       48.36324
H         73.78484       14.75393       47.91993
H         77.33977       12.68663       49.26461
H         74.42734       16.69961       49.26157
H         77.94581       14.65329       50.61817
H         76.49707       16.66256       50.62130
N         71.36995       11.94361       48.01548
C         70.33937       11.87920       49.04315
C         70.52909       10.81628       50.11030
O         69.77441       10.84849       51.07511
C         69.06679       11.55029       48.25326
C         69.32163       12.25161       46.94195
C         70.78673       11.90998       46.69047
H         70.30160       12.88544       49.51686
H         69.05453       10.45787       48.02116
H         68.11805       11.80999       48.76877
H         68.63705       11.97474       46.11233
H         69.23912       13.34577       47.13166
H         70.89326       10.88685       46.27793
H         71.21026       12.66775       45.99721
N         71.46624        9.82544       50.01633
C         71.65741        8.85925       51.08603
C         72.21756        9.60145       52.28093
O         71.60165        9.59557       53.33685
C         72.61422        7.70171       50.71680
C         72.08150        6.66600       49.70603
C         72.07450        7.08089       48.25996
O         72.77864        6.47988       47.46655
O         71.24353        8.03514       47.80494
H         72.06778        9.76526       49.18509
H         70.68124        8.39128       51.35062
H         72.75258        7.12241       51.65795
H         73.61301        8.07139       50.41108
H         71.06616        6.32476       50.00150
H         72.76210        5.78848       49.78312
N         73.38511       10.29348       52.16309
C         73.94727       11.05556       53.25371
H         74.88479       11.55048       52.92080
H         73.22849       11.83930       53.57437
H         74.17776       10.38480       54.10727
H         73.88423       10.29713       51.26116
Ca        72.06872        3.96026       45.80072
O         71.21634        3.91403       48.61731
H         70.38397        3.85436       48.08538
H         71.47105        2.97709       48.80787
O         74.08917        3.79762       47.89999
H         74.91469        4.17759       48.28950
H         74.03984        2.87810       48.25935
O         69.66287        5.72646       45.42882
H         68.80602        5.34444       45.74375
H         69.63822        5.61336       44.44550

Ca 1.0



