%chk=apoCaM-CA-Ng.loop4.water2.frame439.chk
%nprocshared=20
%mem=10GB
%nosave
#b3lyp/svp scf=(tight,noincore,xqc) Test 
#IOP(5/87=12) Density=Current Pop=(MK,readradii) iop(6/33=2) iop(6/42=6)

apoCaM-CA-Ng.loop4.water2.frame439 

   -3  1 
C         90.69153       68.38037       77.10250
C         89.75650       67.58277       78.00297
O         90.53221       67.00197       79.01053
H         91.47800       67.71245       76.69197
H         90.12729       68.83168       76.26124
H         91.18081       69.18827       77.69006
N         88.70879       68.46444       78.55029
C         87.74348       67.87228       79.50221
C         88.38782       67.45052       80.81184
O         88.73903       66.29716       80.95631
C         86.62526       66.95693       78.90110
C         86.90531       65.78422       77.96812
O         87.58909       64.67985       78.33066
O         86.38048       65.78924       76.86528
H         88.17133       68.87971       77.75380
H         87.12603       68.73584       79.83905
H         85.97369       67.63966       78.30870
H         85.99987       66.58687       79.74199
N         88.63019       68.39135       81.78385
C         89.33241       68.18774       83.05731
C         88.46750       67.46341       84.09964
O         88.25299       68.03993       85.15775
C         90.76355       67.60401       82.84786
C         91.58791       67.49927       84.16111
C         91.54483       68.43515       81.80678
C         91.90724       68.83657       84.84652
H         88.35808       69.36527       81.57947
H         89.49304       69.20427       83.47997
H         90.66864       66.57652       82.45169
H         92.55699       67.00638       83.92728
H         91.05135       66.84976       84.88394
H         92.54819       67.99337       81.62869
H         91.01554       68.46762       80.83994
H         91.66007       69.48993       82.12773
H         92.50680       69.49858       84.18837
H         90.98397       69.36562       85.15601
H         92.51345       68.64725       85.75648
N         87.88919       66.24832       83.87617
C         86.98104       65.60973       84.81915
C         87.69560       65.07799       86.06320
O         87.25046       65.46162       87.13626
C         86.08419       64.56700       84.11749
C         85.12591       65.22440       83.15468
O         84.22870       66.12459       83.60308
O         85.13697       64.92964       81.97105
H         88.01981       65.77750       82.98260
H         86.24907       66.37135       85.17996
H         85.46803       64.03689       84.87639
H         86.69158       63.83846       83.56026
N         88.79678       64.25951       86.09851
C         89.59998       63.76234       84.99101
C         89.01608       62.55507       84.27998
O         87.89726       62.17152       84.58393
H         89.17765       64.05326       87.03577
H         90.56185       63.41245       85.42184
H         89.83757       64.59723       84.30812
N         89.71879       61.83716       83.34606
C         91.14425       62.01263       83.04295
C         91.49919       63.40889       82.56662
O         90.61933       64.10164       82.07792
C         91.62799       60.94303       82.03002
C         90.87638       60.97734       80.72331
O         90.17093       59.90000       80.32900
O         90.90951       61.96644       80.00945
H         89.22651       61.04808       82.89759
H         91.67469       61.84812       84.00388
H         91.48675       59.94113       82.48982
H         92.70950       61.05979       81.81272
N         92.75193       63.94133       82.71064
C         93.93251       63.25211       83.22764
C         94.42577       63.85260       84.52202
O         93.76618       64.72016       85.07841
H         92.88318       64.92334       82.42923
H         94.73265       63.32270       82.46196
H         93.76049       62.17943       83.42417
N         95.60803       63.42316       85.05877
C         96.13075       63.90414       86.33652
C         97.20040       64.97655       86.16958
O         97.56099       65.57505       87.17336
C         96.50851       62.72589       87.27392
C         97.56079       61.72598       86.75330
C         98.92963       62.31840       86.59812
N         99.59645       62.79727       87.67161
O         99.45803       62.33527       85.49903
H         96.16827       62.74940       84.51638
H         95.31903       64.44925       86.86736
H         95.58039       62.14029       87.45058
H         96.83084       63.12625       88.25981
H         97.22160       61.28190       85.79498
H         97.64749       60.88941       87.48031
H         99.17971       62.77062       88.61227
H        100.54320       63.17746       87.56766
N         97.66139       65.36049       84.94021
C         98.41788       66.59813       84.72607
C         99.81706       66.39136       84.16668
O        100.48789       67.39465       83.95761
C         97.60210       67.56119       83.80586
C         96.28758       67.98617       84.47648
C         97.31234       66.97146       82.41131
H         97.38728       64.81821       84.11108
H         98.57349       67.13001       85.69063
H         98.20024       68.48850       83.66058
H         95.75131       68.72003       83.83707
H         95.62251       67.11347       84.64724
H         96.49915       68.47369       85.45218
H         96.80254       67.72928       81.77955
H         98.25479       66.67950       81.90265
H         96.64481       66.08682       82.46794
N        100.35036       65.16138       83.92369
C        101.69768       64.98436       83.38888
C        101.69584       64.20847       82.08288
O        102.78171       63.95572       81.57977
C        102.60044       64.25222       84.40931
C        102.71424       64.95806       85.73864
N        103.13537       66.24068       85.82579
O        102.44514       64.34967       86.76026
H         99.79847       64.32039       84.13355
H        102.17530       65.96357       83.17183
H        103.62737       64.18007       83.98798
H        102.22416       63.21738       84.57088
H        103.37888       66.78131       84.98497
H        103.21284       66.69785       86.74695
N        100.54816       63.79484       81.46015
C        100.59724       62.93702       80.28091
C         99.26428       62.81357       79.55671
O         98.24351       62.56802       80.17872
C        101.19560       61.54207       80.62834
C        100.66136       60.86444       81.88287
C        101.52578       60.69521       82.98319
C         99.34671       60.37200       81.98148
C        101.08855       60.06395       84.14932
C         98.90873       59.74284       83.15464
C         99.77606       59.58636       84.24034
O         99.34049       58.97736       85.36223
H         99.62781       64.06914       81.83168
H        101.28837       63.39605       79.54037
H        102.28376       61.69836       80.77581
H        101.11522       60.85854       79.75561
H        102.54697       61.05317       82.94329
H         98.65714       60.45167       81.15777
H        101.77215       59.94815       84.98136
H         97.89401       59.36997       83.21886
H         99.91061       58.85433       86.13525
N         99.26849       62.85882       78.18533
C         98.16828       62.49318       77.29733
C         97.19286       63.62098       77.01168
O         96.94366       63.86937       75.83894
C         97.52011       61.15069       77.69592
C         96.68225       60.55833       76.55265
C         96.22905       59.16774       76.89144
O         96.58719       58.22326       76.20491
O         95.43346       58.95243       77.95572
H        100.17614       63.00232       77.71718
H         98.64933       62.28172       76.31330
H         96.89878       61.25234       78.61067
H         98.34722       60.43534       77.90453
H         97.30710       60.50884       75.63239
H         95.80029       61.19980       76.34378
N         96.61860       64.36770       77.99629
C         95.68020       65.45040       77.70138
C         96.30761       66.45878       76.75897
O         95.73418       66.72324       75.71097
C         95.18895       66.17515       78.97581
C         94.54546       65.25347       80.02184
C         93.46970       64.38207       79.44311
O         93.58634       63.04183       79.50569
O         92.50084       64.87890       78.89686
H         96.86889       64.17308       78.97164
H         94.78495       65.01639       77.20100
H         94.43159       66.93016       78.66358
H         96.02492       66.71767       79.46738
H         94.12380       65.89132       80.82533
H         95.31758       64.60544       80.48188
N         97.51379       67.02036       77.05061
C         98.19579       67.94482       76.16760
H         99.15743       67.49480       75.84185
H         97.60104       68.18415       75.26070
H         98.40422       68.88890       76.71081
H         97.99382       66.75397       77.92339
Ca        89.68263       64.93361       78.96912
O         90.17672       63.37026       76.41113
H         89.90326       62.47883       76.74444
H         91.16363       63.37373       76.49172
O         87.86224       63.13143       81.05162
H         87.14787       63.78246       80.84138
H         87.37848       62.32649       81.36425

Ca 1.0



