%chk=apoCaM-CA-Ng.loop2.water4.frame1486.chk
%nprocshared=20
%mem=10GB
%nosave
#b3lyp/svp scf=(tight,noincore,xqc) Test 
#IOP(5/87=12) Density=Current Pop=(MK,readradii) iop(6/33=2) iop(6/42=6)

apoCaM-CA-Ng.loop2.water4.frame1486 

   -2  1 
C         23.83300       94.86554       62.29180
C         24.91823       95.09976       61.27417
O         25.90643       95.71201       61.65242
H         22.92998       94.35752       61.92145
H         24.24316       94.26940       63.13259
H         23.50470       95.85216       62.68134
N         24.86476       94.70052       59.96997
C         23.81337       93.92246       59.32266
C         23.04322       94.77932       58.32037
O         21.82299       94.78824       58.41398
C         24.38275       92.60038       58.74730
C         25.67377       92.72198       57.99141
O         26.76537       92.05346       58.41124
O         25.74969       93.41972       57.00350
H         25.65964       94.97664       59.37424
H         23.04707       93.56808       60.03315
H         23.61057       92.10860       58.11541
H         24.59273       91.92106       59.60237
N         23.65378       95.56528       57.38400
C         22.90630       96.42268       56.45630
C         23.19445       96.11422       54.98671
O         22.57713       96.72903       54.12818
C         23.25656       97.88391       56.75614
H         24.68236       95.60678       57.36222
H         21.81242       96.29661       56.60510
H         22.67615       98.57169       56.10533
H         23.01709       98.12082       57.81505
H         24.34159       98.06347       56.59103
N         24.15247       95.21833       54.62592
C         24.58839       94.95197       53.26149
C         24.61875       93.45139       52.96839
O         24.08968       93.04391       51.94387
C         25.95904       95.64246       53.03306
C         26.97561       95.40691       54.12475
O         27.34025       96.34041       54.82203
O         27.45459       94.17891       54.37638
H         24.68726       94.76381       55.36410
H         23.90705       95.42179       52.51519
H         25.75899       96.73795       53.01426
H         26.37213       95.36705       52.03899
N         25.21677       92.56774       53.81997
C         25.35970       91.14488       53.57501
C         26.42085       90.80794       52.54278
O         26.62095       89.62472       52.30997
H         25.56604       92.89602       54.71897
H         24.37503       90.70953       53.29692
H         25.68757       90.65983       54.52043
N         27.12812       91.76627       51.87147
C         28.07848       91.46322       50.80525
C         29.43224       92.15446       50.98003
O         30.25368       92.02528       50.08158
C         27.39995       91.82847       49.47113
C         26.25058       90.87362       49.22138
N         24.96919       91.30325       49.18294
O         26.48774       89.68338       49.07044
H         26.92699       92.76086       52.03842
H         28.31322       90.37688       50.76267
H         28.10675       91.72411       48.62075
H         27.05392       92.88543       49.50788
H         24.73685       92.29575       49.32347
H         24.20269       90.62970       49.03055
N         29.78065       92.84006       52.10814
C         31.11918       93.41211       52.26684
C         31.35387       94.02999       53.63563
O         30.44630       94.03919       54.44797
H         29.09964       92.91204       52.87389
H         31.27113       94.19085       51.48814
H         31.87032       92.60632       52.12935
N         32.54208       94.59466       53.99734
C         33.72404       94.66514       53.14237
C         34.50266       93.34378       53.10991
O         35.46152       93.26299       52.35474
C         34.66326       95.80669       53.62603
C         33.95948       97.17412       53.60914
O         35.12281       95.53034       54.92534
H         32.58901       95.02899       54.93260
H         33.40368       94.93125       52.11198
H         35.52984       95.85704       52.92583
H         35.92432       96.09691       55.07640
H         33.59992       97.41203       52.58622
H         33.09487       97.19592       54.30571
H         34.66879       97.96841       53.92525
N         34.19063       92.29482       53.93158
C         34.97287       91.05903       54.03891
C         34.05139       89.86657       53.75911
O         33.00243       89.82771       54.38975
C         35.53133       90.93429       55.49395
C         36.23977       92.21447       56.01690
C         36.45638       89.71057       55.62281
C         37.48345       92.65300       55.24223
H         33.38998       92.38610       54.57353
H         35.84678       91.07559       53.35945
H         34.67082       90.78019       56.18352
H         36.53617       92.04699       57.07599
H         35.51452       93.05534       56.01830
H         35.91893       88.77641       55.35985
H         37.32908       89.80776       54.94483
H         36.82182       89.60697       56.66608
H         37.23749       92.88269       54.18846
H         37.89040       93.57553       55.70924
H         38.27353       91.87668       55.27759
N         34.32682       88.81254       52.92421
C         35.54088       88.60315       52.12431
C         35.62576       87.13070       51.62814
O         34.69813       86.36397       51.84570
C         35.52009       89.59748       50.92958
C         36.78427       89.61303       50.11925
O         36.75852       89.32335       48.93341
O         37.95305       89.95224       50.69687
H         33.60714       88.07492       52.91797
H         36.42256       88.77620       52.77755
H         35.36892       90.63426       51.28247
H         34.65455       89.34912       50.27654
N         36.71203       86.67435       50.93176
C         36.80145       85.34391       50.32050
C         38.15225       84.68984       50.63209
O         39.15752       85.35951       50.43551
C         36.70913       85.52060       48.78983
C         36.77792       84.18461       48.08929
C         35.71370       83.27110       48.18511
C         37.92735       83.82773       47.36588
C         35.80807       82.01437       47.57915
C         38.01969       82.56917       46.76672
C         36.96246       81.66210       46.87493
H         37.49260       87.31780       50.75478
H         35.95245       84.70005       50.62745
H         37.55153       86.17125       48.46563
H         35.76654       86.03648       48.50380
H         34.81923       83.52584       48.74066
H         38.76190       84.51321       47.28798
H         34.99077       81.30992       47.66437
H         38.91583       82.29478       46.22614
H         37.03948       80.68553       46.41545
N         38.30003       83.37988       51.02055
C         37.23821       82.40967       51.24315
C         36.46031       82.74871       52.49150
O         35.24027       82.67090       52.45906
C         37.98290       81.06739       51.28301
C         39.32649       81.42876       51.86549
C         39.60964       82.77050       51.19082
H         36.53006       82.32329       50.40024
H         37.44021       80.22834       51.76871
H         38.18656       80.77088       50.22654
H         39.18216       81.58336       52.95318
H         40.12759       80.66992       51.73428
H         40.29051       83.36627       51.83599
H         40.05781       82.63728       50.18081
N         37.08680       83.24933       53.58980
C         36.35025       83.74411       54.73860
C         35.87481       82.55974       55.57087
O         36.73456       81.87197       56.10420
C         37.24652       84.68769       55.57288
C         37.70571       85.90642       54.73844
C         38.62214       86.82666       55.49365
O         39.07463       87.81184       54.93337
O         38.97013       86.57464       56.77062
H         38.10616       83.38193       53.56350
H         35.53083       84.38627       54.37330
H         38.13942       84.12896       55.93218
H         36.67471       85.05150       56.45456
H         36.81486       86.48034       54.40328
H         38.25813       85.57218       53.83560
N         34.56667       82.20173       55.74766
C         33.40058       82.82376       55.14961
H         32.72492       83.18578       55.95105
H         33.61844       83.66616       54.47701
H         32.85960       82.06202       54.54866
H         34.37455       81.38414       56.34771
Ca        28.53151       93.77125       56.32263
O         30.28468       96.28407       56.64346
H         31.24601       96.07188       56.74599
H         30.24559       96.91051       55.87806
O         28.79630       90.96775       55.07368
H         29.51177       91.01029       54.39101
H         29.11267       90.28807       55.72008
O         30.72215       92.93609       58.23691
H         30.13337       92.25612       58.65113
H         30.59638       93.74513       58.79370
O         28.32868       95.53227       58.72534
H         28.20057       94.99965       59.54988
H         27.67768       96.27436       58.79846

Ca 1.0



