%chk=apoCaM-CA-Ng.loop4.water3.frame120.chk
%nprocshared=20
%mem=10GB
%nosave
#b3lyp/svp scf=(tight,noincore,xqc) Test 
#IOP(5/87=12) Density=Current Pop=(MK,readradii) iop(6/33=2) iop(6/42=6)

apoCaM-CA-Ng.loop4.water3.frame120 

   -3  1 
C         34.79858       79.21509       13.90396
C         34.43270       80.66095       14.02124
O         35.22106       81.39980       14.56744
H         35.79784       79.03407       14.36201
H         34.04743       78.58725       14.42080
H         34.85779       78.93838       12.83077
N         33.26584       81.14056       13.50491
C         32.88460       82.55489       13.45753
C         33.82451       83.33016       12.55098
O         34.47963       84.25956       12.98367
C         32.54967       83.18012       14.84223
C         33.56062       83.22528       15.97012
O         34.66080       84.00910       15.93462
O         33.28536       82.66253       17.01844
H         32.62971       80.46560       13.05422
H         31.90642       82.61341       12.92668
H         31.67457       82.60446       15.21967
H         32.19371       84.22005       14.67244
N         33.87950       82.96215       11.23515
C         34.68810       83.51101       10.14238
C         34.31862       84.94834        9.77149
O         33.77041       85.13901        8.69394
C         36.21841       83.31680       10.34470
C         37.01664       83.57798        9.03139
C         36.55300       81.92263       10.90471
C         36.74400       82.58619        7.88432
H         33.27418       82.17082       10.96244
H         34.40704       82.88546        9.26884
H         36.56641       84.04772       11.10235
H         38.10131       83.52191        9.26293
H         36.80811       84.60576        8.66440
H         37.65166       81.81128       11.02443
H         36.09989       81.79106       11.90726
H         36.17002       81.11547       10.24773
H         36.99473       81.54678        8.18076
H         35.69128       82.62028        7.53972
H         37.38096       82.84267        7.01256
N         34.59450       86.01076       10.58491
C         34.22709       87.38015       10.24793
C         35.23594       88.01083        9.28382
O         34.80013       88.38606        8.20431
C         33.95504       88.22654       11.51766
C         32.80622       87.71321       12.35360
O         32.18003       86.71391       12.03486
O         32.46290       88.37482       13.47499
H         35.06985       85.85887       11.47924
H         33.24010       87.36762        9.72760
H         33.70355       89.26409       11.20847
H         34.83205       88.26490       12.18010
N         36.57398       88.18702        9.53011
C         37.26642       87.77829       10.74680
C         38.74975       88.14528       10.77085
O         39.23099       88.70928        9.79840
H         37.11736       88.64104        8.78041
H         37.16717       86.68267       10.84631
H         36.81048       88.30595       11.58214
N         39.58357       87.87458       11.82965
C         39.25064       87.19815       13.08628
C         38.73343       85.79989       12.78647
O         37.56191       85.54202       13.01624
C         38.34201       88.05985       13.99630
C         38.22889       87.52213       15.40434
O         37.54277       88.22656       16.32319
O         38.76374       86.47382       15.73358
H         40.57169       88.15516       11.72364
H         40.17949       87.11592       13.69047
H         37.32221       88.17242       13.59757
H         38.80259       89.06834       14.07530
N         39.52039       84.84302       12.20978
C         40.95317       84.97254       12.01093
C         41.30032       85.05523       10.56264
O         40.43992       84.89684        9.70677
H         39.08648       83.96080       11.90448
H         41.48419       84.12326       12.49197
H         41.35404       85.88765       12.47313
N         42.56926       85.39914       10.21971
C         42.94085       85.66041        8.84109
C         43.15812       84.36352        8.06680
O         43.39727       84.43181        6.86933
C         44.20094       86.55608        8.82188
C         44.35275       87.33325        7.50353
C         45.54185       88.26194        7.49841
N         45.72741       89.10132        6.45453
O         46.33463       88.27248        8.42958
H         43.24537       85.59627       10.97556
H         42.11375       86.25560        8.39227
H         45.10346       85.95256        9.06782
H         44.08505       87.33579        9.60917
H         43.43949       87.95647        7.37539
H         44.43906       86.64961        6.63711
H         45.05818       89.11837        5.67073
H         46.53067       89.74657        6.43659
N         43.13464       83.14530        8.69174
C         43.44993       81.88678        8.02422
C         44.74186       81.28228        8.56903
O         45.18555       80.28466        8.02013
C         42.26512       80.88581        8.11873
C         41.01707       81.45838        7.43264
C         41.93131       80.48190        9.56627
H         42.93679       83.09722        9.70023
H         43.64510       82.07106        6.94450
H         42.55387       79.96196        7.56932
H         40.66737       82.37922        7.94673
H         41.24334       81.70409        6.37310
H         40.19473       80.71191        7.44631
H         41.58502       81.35053       10.16331
H         41.12076       79.72235        9.56935
H         42.81708       80.03373       10.06370
N         45.41732       81.84588        9.61744
C         46.71324       81.38025       10.08638
C         46.63493       80.91166       11.52944
O         47.05821       79.79423       11.79527
C         47.73971       82.52504        9.94673
C         47.84718       83.01796        8.52155
N         48.25814       82.19640        7.52687
O         47.56017       84.17797        8.26466
H         45.04054       82.67735       10.08775
H         47.08136       80.52829        9.47279
H         48.74194       82.17898       10.28203
H         47.43420       83.37402       10.59704
H         48.51357       81.21729        7.71856
H         48.32501       82.54256        6.55785
N         46.14097       81.71514       12.51991
C         46.20822       81.36601       13.94002
C         44.83743       81.29479       14.59509
O         43.88497       81.85416       14.07139
C         47.00631       82.47195       14.66135
C         48.36915       82.68358       14.05420
C         49.38534       81.73373       14.23199
C         48.63106       83.84041       13.29921
C         50.64836       81.94166       13.66810
C         49.88763       84.03867       12.72406
C         50.90303       83.09056       12.90991
O         52.12291       83.27268       12.36590
H         45.76034       82.64057       12.26978
H         46.70969       80.38228       14.07374
H         47.11280       82.26778       15.74814
H         46.41703       83.41246       14.56142
H         49.20200       80.84106       14.81669
H         47.85829       84.58301       13.14077
H         51.42974       81.20836       13.82014
H         50.06938       84.92900       12.13500
H         52.33617       84.05193       11.83264
N         44.70950       80.67332       15.80928
C         43.53350       80.69612       16.68672
C         42.25734       80.06864       16.13926
O         41.29684       80.02878       16.89733
C         43.22641       82.14681       17.13210
C         44.37343       82.84884       17.87823
C         44.60192       82.30362       19.26365
O         44.97664       81.15526       19.43445
O         44.40871       83.10129       20.33207
H         45.54392       80.19788       16.18809
H         43.77954       80.09514       17.58757
H         42.33095       82.17238       17.79205
H         42.98156       82.74172       16.22808
H         44.08804       83.91713       17.98430
H         45.31213       82.80834       17.28897
N         42.13715       79.56217       14.88085
C         40.87819       79.02692       14.36717
C         41.00744       77.54553       14.04434
O         40.03398       76.96432       13.58359
C         40.45103       79.84077       13.12348
C         40.36898       81.36332       13.37073
C         39.24189       81.81277       14.26379
O         38.39495       82.74950       13.79964
O         39.12977       81.40241       15.40624
H         42.94454       79.56124       14.24395
H         40.06624       79.10600       15.11988
H         39.47587       79.47695       12.72925
H         41.21955       79.67706       12.33797
H         40.23037       81.85671       12.38495
H         41.32687       81.72989       13.78654
N         42.15950       76.85222       14.28594
C         42.28128       75.43880       14.01066
H         43.29554       75.08683       14.29820
H         41.53067       74.87228       14.60138
H         42.13112       75.24847       12.92761
H         42.98267       77.31807       14.69212
Ca        36.51519       83.55482       14.73191
O         35.25243       86.62166       15.12966
H         35.07975       87.33933       15.78881
H         34.87684       86.96484       14.28215
O         36.60189       84.95931       17.97714
H         37.05913       85.83618       17.94460
H         35.67763       85.17149       18.26204
O         36.65652       81.99049       17.35421
H         37.61901       82.19289       17.46767
H         36.63445       81.06143       17.01323

Ca 1.0



