%chk=apoCaM-CA-Ng.loop3.water4.frame149.chk
%nprocshared=20
%mem=10GB
%nosave
#b3lyp/svp scf=(tight,noincore,xqc) Test 
#IOP(5/87=12) Density=Current Pop=(MK,readradii) iop(6/33=2) iop(6/42=6)

apoCaM-CA-Ng.loop3.water4.frame149 

   0  1 
C         65.06305       40.63527      108.89138
C         65.21186       40.38298      110.36462
O         64.70214       41.16545      111.14930
H         65.51093       41.62071      108.64055
H         65.58257       39.85823      108.29097
H         63.98920       40.64157      108.61350
N         65.92887       39.31436      110.81191
C         66.21058       39.02104      112.21609
C         67.00057       40.15485      112.85009
O         66.70212       40.58656      113.95588
C         64.93960       38.65022      113.00906
C         64.27219       37.42576      112.44685
O         64.13826       36.32398      113.20946
O         63.84769       37.42000      111.30298
H         66.35044       38.68266      110.11348
H         66.88512       38.13565      112.23633
H         64.22356       39.49667      113.01734
H         65.22241       38.43581      114.06273
N         68.05366       40.67737      112.16501
C         68.95910       41.70848      112.67415
C         68.26667       43.04464      112.96628
O         68.92564       43.94485      113.46846
C         70.09796       41.92426      111.64432
C         70.91534       40.62918      111.41325
C         72.00639       40.75968      110.34198
C         71.44017       40.97040      108.92510
N         72.51589       40.98594      107.93436
H         68.22267       40.29436      111.22424
H         69.40416       41.34222      113.62496
H         70.79377       42.71437      112.00167
H         69.63553       42.27072      110.69553
H         70.27508       39.77643      111.11062
H         71.39424       40.35247      112.37653
H         72.57787       39.80531      110.33942
H         72.70140       41.58356      110.60824
H         70.88504       41.93007      108.86591
H         70.73550       40.14391      108.67874
H         73.17883       41.76868      108.13752
H         73.03015       40.07500      107.94770
H         72.10565       41.12601      106.98272
N         66.95578       43.25622      112.66348
C         66.25351       44.51351      112.87417
C         66.14594       44.87145      114.35034
O         65.77401       44.02776      115.15354
C         64.86008       44.42907      112.22604
C         64.27941       45.79372      112.08112
O         64.24011       46.34103      110.85868
O         63.95970       46.45587      113.05273
H         66.43312       42.50919      112.20033
H         66.80951       45.30752      112.32285
H         64.17716       43.74043      112.76659
H         64.99569       44.04038      111.19206
N         66.41517       46.14292      114.75750
C         66.38907       46.59714      116.13775
C         65.07654       46.37350      116.86188
O         65.12089       45.82345      117.95360
H         66.66662       46.84482      114.04416
H         66.60214       47.68724      116.14959
H         67.20737       46.10033      116.70314
N         63.87880       46.78887      116.35051
C         62.63421       46.72882      117.12043
C         61.68300       45.62295      116.68817
O         60.65177       45.50022      117.33632
C         61.92379       48.10628      117.13462
C         61.28048       48.48419      115.81512
N         59.94020       48.67170      115.73369
O         61.96794       48.62960      114.81672
H         63.85992       47.18367      115.40370
H         62.87831       46.50151      118.18135
H         62.64270       48.89640      117.44120
H         61.12976       48.07125      117.91306
H         59.33570       48.56058      116.56113
H         59.49886       48.92918      114.83843
N         61.94301       44.76603      115.65256
C         61.03180       43.67501      115.30792
C         60.42014       43.79093      113.92745
O         59.47251       43.06380      113.66513
H         62.81615       44.86423      115.11518
H         60.17825       43.64689      116.01728
H         61.55318       42.69902      115.40305
N         60.90059       44.64927      112.98540
C         60.27800       44.84983      111.68365
C         60.06764       46.32447      111.46497
O         61.03565       47.07231      111.50754
C         61.15014       44.33066      110.52076
C         61.14171       42.82778      110.39712
C         60.52905       42.23097      109.27874
C         61.73281       42.00774      111.36889
C         60.50472       40.84339      109.13887
C         61.70639       40.61660      111.22580
C         61.09266       40.03090      110.10940
O         61.06053       38.69261      109.95768
H         61.74531       45.19604      113.18910
H         59.29785       44.32737      111.60939
H         62.18629       44.71749      110.57848
H         60.71090       44.73966      109.58282
H         60.06149       42.83795      108.51266
H         62.21888       42.43912      112.23196
H         60.02585       40.40039      108.27464
H         62.16584       39.99525      111.98078
H         61.44849       38.09232      110.60832
N         58.83498       46.80058      111.14166
C         58.61513       48.17072      110.71187
C         57.70644       48.86678      111.70176
O         58.14778       49.83539      112.30041
C         58.08825       48.16994      109.24464
C         59.02557       47.37601      108.28412
C         57.86802       49.59355      108.70988
C         60.45606       47.92157      108.15420
H         58.03295       46.15156      111.12218
H         59.56971       48.73688      110.70750
H         57.10381       47.65117      109.22728
H         58.57215       47.35760      107.26943
H         59.08908       46.32069      108.62378
H         58.81435       50.16810      108.70702
H         57.47016       49.55291      107.67286
H         57.13713       50.14201      109.33163
H         61.03344       47.27646      107.45922
H         60.46260       48.95143      107.74525
H         60.98680       47.91711      109.12452
N         56.44537       48.42388      111.96908
C         55.58244       49.11700      112.92224
C         55.21823       50.51084      112.42761
O         55.13332       51.41535      113.24592
C         54.33009       48.29881      113.26769
O         53.53303       48.08881      112.13699
H         56.10194       47.57046      111.50243
H         56.13327       49.21437      113.88599
H         53.74618       48.84344      114.04497
H         54.65865       47.31962      113.68695
H         52.79269       47.49928      112.43884
N         55.03357       50.76352      111.09427
C         54.71440       52.07773      110.53389
C         55.79885       53.13132      110.76815
O         55.55655       54.28920      110.45594
C         53.34273       52.55215      111.02907
H         55.11924       49.98133      110.42893
H         54.61736       51.97520      109.42959
H         53.06054       53.49682      110.51562
H         52.57558       51.78901      110.77714
H         53.33362       52.73154      112.12181
N         57.04004       52.80088      111.22958
C         58.12361       53.76092      111.41171
C         59.20595       53.51602      110.38242
O         59.10344       52.55819      109.62873
C         58.69050       53.62194      112.83016
H         57.26065       51.81654      111.39910
H         57.75692       54.79914      111.26531
H         57.89461       53.81178      113.58017
H         59.08466       52.59361      112.98875
H         59.51716       54.34220      113.00414
N         60.26463       54.37640      110.26571
C         61.36758       54.19739      109.32020
C         60.92099       54.26657      107.85429
O         61.76461       54.11703      106.98206
C         62.09585       52.88680      109.68459
C         63.39945       52.58861      108.92713
C         63.97829       51.29511      109.41294
O         63.39397       50.64641      110.43626
O         64.95404       50.81111      108.86321
H         60.31076       55.19042      110.89677
H         62.09526       55.02469      109.47527
H         61.41730       52.02335      109.52724
H         62.34411       52.94652      110.76828
H         64.13921       53.40570      109.06393
H         63.19036       52.45163      107.84925
N         59.63247       54.52684      107.48739
C         59.22708       54.55721      106.09927
H         58.14544       54.79826      106.02630
H         59.80489       55.32929      105.54907
H         59.39962       53.56191      105.63594
H         58.90633       54.71843      108.18842
Ca        63.76519       48.49451      110.75121
O         66.49067       49.41864      111.96826
H         66.22060       49.62159      111.03851
H         66.85749       50.27274      112.30881
O         64.97673       49.43288      114.70702
H         65.96164       49.46851      114.62118
H         64.79898       49.71316      115.63982
O         61.13325       50.31043      112.24437
H         60.65293       50.85300      111.57022
H         60.58893       50.39771      113.06579
O         63.40204       51.68716      113.61165
H         64.38282       51.81798      113.57998
H         63.03200       52.47719      113.14451

Ca 1.0



