%chk=apoCaM-CA-Ng.loop1.water3.frame1159.chk
%nprocshared=20
%mem=10GB
%nosave
#b3lyp/svp scf=(tight,noincore,xqc) Test 
#IOP(5/87=12) Density=Current Pop=(MK,readradii) iop(6/33=2) iop(6/42=6)

apoCaM-CA-Ng.loop1.water3.frame1159 

   0  1 
C         96.10585       40.11591      101.23380
C         97.51586       40.51586      101.53701
O         97.75137       41.68189      101.82357
H         95.42852       40.99487      101.29989
H         96.05545       39.71370      100.19925
H         95.77010       39.34056      101.95070
N         98.52310       39.60134      101.43564
C         99.92609       39.95950      101.59575
C        100.58176       39.93101      100.23091
O        101.61410       39.30123      100.03923
C        100.61755       39.04626      102.62866
C         99.99256       39.16903      103.98979
O         99.44908       38.08924      104.58329
O         99.98896       40.24275      104.57101
H         98.29343       38.63626      101.15150
H        100.02556       41.01120      101.94540
H        101.69086       39.32406      102.71568
H        100.55732       37.98922      102.28765
N        100.00572       40.64314       99.22275
C        100.59147       40.81539       97.90439
C        101.91890       41.55609       98.00138
O        102.90006       40.98272       97.55106
C         99.60483       41.54217       96.95342
C         98.53056       40.58475       96.40650
C         97.43739       41.35796       95.64964
C         96.44421       40.44545       94.90751
N         97.04671       39.82820       93.72225
H         99.10743       41.11162       99.41458
H        100.80006       39.81716       97.45370
H        100.14817       41.93829       96.06737
H         99.13136       42.40068       97.47052
H         98.04636       40.01281       97.22784
H         99.04863       39.86562       95.73709
H         97.87929       42.06679       94.91669
H         96.87653       41.95004       96.40619
H         95.58950       41.07190       94.56881
H         96.04347       39.66487       95.59176
H         97.83494       39.19505       93.98065
H         96.32030       39.26624       93.22254
H         97.39075       40.57213       93.07117
N        102.09443       42.80772       98.52683
C        101.09187       43.65780       99.16457
C        101.54503       44.03812      100.57959
O        102.57936       43.55617      101.02265
C        100.76144       44.85267       98.24212
C        101.89626       45.78369       97.94577
O        101.75182       47.08904       98.21554
O        102.90880       45.39137       97.38939
H        103.04899       43.19152       98.46969
H        100.13753       43.12363       99.28820
H         99.92810       45.43889       98.68471
H        100.39850       44.45416       97.27033
N        100.78533       44.83795      101.38099
C        101.09914       45.07722      102.78719
C        102.40793       45.86127      103.02569
O        102.21711       47.14114      102.53957
H         99.90567       45.22974      101.01074
H        101.14904       44.09768      103.30780
H        100.26656       45.65712      103.24696
N        102.63937       45.95541      104.47961
C        103.54889       47.03486      104.96051
C        103.19077       47.36527      106.41142
O        102.43172       46.60354      106.99581
C        105.02746       46.58509      104.85263
C        105.45471       46.32213      103.44144
O        105.89979       45.10016      103.09278
O        105.42961       47.21871      102.61345
H        102.90175       45.02049      104.87131
H        103.37538       47.96595      104.38495
H        105.17177       45.66381      105.45819
H        105.71587       47.34547      105.24969
N        103.65069       48.45560      107.10593
C        104.48328       49.54611      106.61393
C        103.75408       50.44331      105.64173
O        102.72980       51.00199      106.00807
H        103.36797       48.52808      108.09637
H        105.43878       49.17577      106.21077
H        104.75268       50.19529      107.47579
N        104.24492       50.64609      104.38741
C        103.62791       51.53057      103.40117
C        102.99484       50.70253      102.31027
O        103.52701       49.66805      101.96071
C        104.66097       52.54900      102.83999
C        104.10716       53.36840      101.65952
O        105.82182       51.88412      102.42012
H        105.08684       50.12133      104.10378
H        102.80898       52.12485      103.86461
H        104.91841       53.23899      103.67735
H        106.55067       52.55917      102.40233
H        103.17896       53.90456      101.94465
H        104.85969       54.11120      101.32091
H        103.89037       52.70461      100.79305
N        101.84257       51.14377      101.72985
C        101.07168       50.50015      100.67109
C        101.91435       50.38301       99.35906
O        103.08747       49.58743       99.35232
C        100.33275       49.20420      101.14061
C         99.85075       49.24672      102.61920
C         99.18017       48.79850      100.20614
C         98.82067       50.32544      102.94612
H        101.46721       52.04631      102.06120
H        100.25164       51.22090      100.45090
H        101.02709       48.38658      101.09357
H        100.72706       49.39108      103.28749
H         99.41571       48.25728      102.88453
H         98.40006       49.58604      100.16815
H         99.54169       48.60514       99.17892
H         98.71645       47.85387      100.56531
H         97.89089       50.17646      102.36230
H         98.56414       50.26006      104.02560
H         99.22880       51.33630      102.74855
N        101.10143       50.23627       98.14656
C        101.86363       50.04728       96.89283
C        102.90411       51.14054       96.59847
O        103.70339       50.94411       95.69402
C        100.83442       49.88917       95.74208
C        101.43408       49.39749       94.42270
O        100.17287       51.11285       95.53546
H        100.46701       51.06522       98.07176
H        102.41909       49.09240       96.99058
H        100.10182       49.11424       96.07466
H         99.29048       50.90571       95.13087
H        102.14771       50.12955       93.99788
H        101.94160       48.42183       94.57551
H        100.61757       49.25497       93.68255
N        102.95711       52.31381       97.29527
C        103.92043       53.37195       96.99974
C        105.34307       52.91665       97.29313
O        105.65995       52.65504       98.44491
C        103.56367       54.64568       97.81208
C        104.57605       55.77658       97.62676
O        102.30264       55.11690       97.40558
H        102.25786       52.49357       98.02606
H        103.83169       53.63318       95.92148
H        103.55489       54.40835       98.90260
H        101.62377       54.72020       98.01087
H        104.24702       56.66898       98.19947
H        105.56656       55.47594       98.02487
H        104.66976       56.04684       96.55391
N        106.25743       52.82086       96.28017
C        107.66058       52.45960       96.46295
C        107.76979       51.10913       97.14642
O        108.23719       51.03332       98.27532
C        108.45761       53.57307       97.18842
C        108.35000       54.92581       96.45611
C        109.36507       55.98002       96.93270
C        109.31763       56.27962       98.43794
N        110.26979       57.33813       98.78051
H        105.94712       53.01186       95.31551
H        108.13996       52.36921       95.46142
H        109.52541       53.25909       97.19658
H        108.11624       53.69242       98.23843
H        107.31920       55.31763       96.56387
H        108.54140       54.77700       95.37103
H        109.16542       56.91815       96.36886
H        110.38965       55.63511       96.67327
H        109.58420       55.36206       99.00656
H        108.29329       56.59635       98.73190
H        110.26009       57.49120       99.81461
H        111.23749       57.06544       98.49020
H        110.00087       58.22985       98.30429
N        107.35922       49.98700       96.49024
C        107.35597       48.65837       97.09310
C        105.98684       47.99018       96.92494
O        105.33069       47.81575       97.94147
C        108.54402       47.80588       96.60512
C        109.88213       48.36185       97.12215
C        111.02688       47.47880       96.71880
O        111.06549       46.19486       97.12508
O        111.93681       47.92365       96.03799
H        107.05227       50.09442       95.51624
H        107.51042       48.75476       98.19003
H        108.58755       47.76513       95.50202
H        108.42293       46.77659       97.00819
H        109.86393       48.41146       98.23317
H        110.04280       49.38814       96.72648
N        105.43622       47.57645       95.74240
C        106.05912       47.62012       94.43711
H        106.94833       46.96395       94.40934
H        105.35373       47.21740       93.67969
H        106.30690       48.65198       94.13446
H        104.48944       47.16651       95.77773
Ca       103.09418       47.57337      100.48604
O        107.24439       46.79026      100.08669
H        107.79738       46.35285       99.39246
H        107.56840       46.40838      100.94001
O        104.78628       44.92773       99.78059
H        105.09572       45.20949      100.67544
H        104.87755       43.94250       99.79340
O        105.93769       49.49010      100.12818
H        105.77745       50.22757       99.48823
H        106.16398       49.93865      100.97742

Ca 1.0



