%chk=apoCaM-CA-Ng.loop1.water4.frame521.chk
%nprocshared=20
%mem=10GB
%nosave
#b3lyp/svp scf=(tight,noincore,xqc) Test 
#IOP(5/87=12) Density=Current Pop=(MK,readradii) iop(6/33=2) iop(6/42=6)

apoCaM-CA-Ng.loop1.water4.frame521 

   0  1 
C         76.09603      116.07852       57.50774
C         75.55211      117.30627       56.83807
O         75.97342      118.40493       57.16913
H         76.85924      116.34707       58.26899
H         75.27116      115.52823       58.00733
H         76.56590      115.41775       56.74898
N         74.59899      117.18135       55.87011
C         73.98618      118.29314       55.14056
C         75.03091      119.00741       54.27078
O         76.19715      118.64091       54.33464
C         73.23617      119.21514       56.13928
C         72.12059      120.05948       55.57344
O         71.74046      119.93691       54.42090
O         71.46027      120.89901       56.39264
H         74.27429      116.22999       55.63497
H         73.23448      117.83397       54.46021
H         73.96952      119.86091       56.66552
H         72.73679      118.57554       56.89985
N         74.68486      119.98100       53.37448
C         75.62224      120.57479       52.42472
C         76.19065      119.47991       51.54823
O         77.39649      119.29358       51.46640
C         76.65971      121.48571       53.12285
C         75.95789      122.76219       53.62081
C         76.91813      123.77312       54.25542
C         76.16797      125.08039       54.56408
N         77.05131      126.07501       55.16907
H         73.70686      120.26628       53.28199
H         75.05822      121.22706       51.71996
H         77.42076      121.80162       52.37568
H         77.18252      120.95614       53.94746
H         75.15939      122.50364       54.34988
H         75.48654      123.25146       52.73857
H         77.74617      123.99789       53.54789
H         77.34696      123.34422       55.18705
H         75.31954      124.87416       55.25357
H         75.75310      125.49653       53.61749
H         76.50521      126.94922       55.34740
H         77.42501      125.71710       56.07740
H         77.84109      126.29807       54.52072
N         75.30577      118.72599       50.83730
C         75.65406      117.64564       49.92297
C         74.35557      117.16690       49.26043
O         73.45901      116.78946       50.00152
C         76.35204      116.48581       50.67031
C         76.77747      115.39386       49.72782
O         77.52499      115.64466       48.79719
O         76.35724      114.13029       49.91535
H         74.30775      118.97263       50.93842
H         76.37012      118.06279       49.19639
H         75.67961      116.07293       51.45419
H         77.26933      116.85616       51.17127
N         74.10244      117.19846       47.91712
C         75.05476      117.51543       46.86913
C         75.03653      116.42795       45.83033
O         74.85803      116.73341       44.65952
H         73.14758      116.95527       47.60793
H         76.08952      117.59300       47.23522
H         74.78132      118.48280       46.39421
N         75.18427      115.12150       46.19246
C         75.22481      114.03480       45.22012
C         75.06936      112.68394       45.91271
O         75.82100      112.37703       46.82511
C         76.53518      114.12134       44.38036
C         77.76807      114.04259       45.24055
O         78.04936      112.90043       45.88745
O         78.47217      115.02533       45.40887
H         75.25670      114.89730       47.19686
H         74.36846      114.14322       44.51871
H         76.54474      115.09070       43.83951
H         76.56589      113.31904       43.61239
N         74.10900      111.80475       45.51111
C         74.05036      110.43965       46.00917
C         73.77446      110.28870       47.49032
O         73.84277      109.15980       47.95172
H         73.46323      112.06855       44.75214
H         75.03120      109.96267       45.79194
H         73.27419      109.87205       45.45287
N         73.43444      111.32929       48.30493
C         73.20164      111.12890       49.73697
C         74.50971      110.82063       50.47072
O         75.57229      110.89066       49.86718
C         72.47495      112.35353       50.36463
C         73.33138      113.61964       50.42505
O         71.30545      112.63732       49.64028
H         73.28959      112.26169       47.89318
H         72.50670      110.26722       49.85207
H         72.20090      112.12420       51.42021
H         70.63531      111.94958       49.89134
H         73.65386      113.94492       49.41436
H         72.74173      114.43795       50.88833
H         74.22134      113.44926       51.06431
N         74.50057      110.52120       51.80229
C         75.72695      110.38259       52.59415
C         76.60528      109.19634       52.21316
O         77.71541      109.14084       52.72830
C         75.43074      110.28779       54.12547
C         74.61306      109.01070       54.47543
C         74.75917      111.57505       54.63581
C         74.51375      108.74296       55.97612
H         73.58796      110.48045       52.27516
H         76.32907      111.30331       52.42178
H         76.41355      110.21801       54.64505
H         75.11416      108.11951       54.04177
H         73.59095      109.06633       54.04625
H         73.75527      111.71931       54.18751
H         74.65311      111.55655       55.73881
H         75.39057      112.45404       54.38476
H         73.96648      109.55069       56.49988
H         73.96304      107.79247       56.14121
H         75.53077      108.63781       56.41118
N         76.18471      108.18419       51.40087
C         77.00126      106.99369       51.15715
C         76.31165      105.74777       51.67442
O         75.16944      105.81638       52.11237
C         77.36472      106.86089       49.65723
C         76.14265      106.67822       48.75300
O         78.07413      107.99766       49.24407
H         75.24143      108.22614       50.98820
H         77.96049      107.06029       51.71480
H         78.00341      105.96147       49.50061
H         78.98845      107.91954       49.62369
H         76.46811      106.57109       47.69678
H         75.57222      105.76822       49.03481
H         75.47568      107.55471       48.82176
N         76.97213      104.55736       51.64240
C         76.38031      103.29315       52.04588
C         77.14878      102.68237       53.20943
O         76.53008      102.39299       54.22372
C         76.24076      102.34864       50.81267
C         77.54783      101.94069       50.11910
O         75.43035      102.97693       49.85135
H         77.94012      104.54466       51.28954
H         75.33558      103.44880       52.40033
H         75.75659      101.39746       51.13940
H         74.48638      102.78667       50.09234
H         78.11429      102.82878       49.76874
H         78.18105      101.31626       50.77728
H         77.31497      101.31697       49.23015
N         78.48515      102.41848       53.12194
C         79.21612      101.64569       54.11834
C         80.52213      102.31347       54.50620
O         81.24999      102.75214       53.62558
C         79.49396      100.26282       53.50086
C         80.18014       99.30758       54.48472
C         80.24253       97.88878       53.91857
C         80.90910       96.92958       54.91197
N         80.85371       95.55471       54.41808
H         78.99059      102.67662       52.26375
H         78.59950      101.46390       55.02668
H         80.10674      100.35792       52.57683
H         78.50904       99.82620       53.22209
H         79.58087       99.27366       55.41855
H         81.20527       99.67246       54.71635
H         80.80597       97.88268       52.96009
H         79.20275       97.54387       53.72664
H         80.38516       96.97998       55.89275
H         81.96930       97.23202       55.06591
H         79.85602       95.25458       54.31950
H         81.33620       95.48127       53.49335
H         81.32725       94.92388       55.10395
N         80.95166      102.28510       55.80385
C         82.29099      102.71704       56.17500
C         82.39986      104.23660       56.17410
O         83.24369      104.74085       55.44693
C         82.84047      102.09982       57.49413
C         83.01777      100.56165       57.48996
C         81.85848       99.78764       58.06491
O         80.76008       99.80000       57.54367
O         82.04662       99.04320       59.17231
H         80.35202      101.84804       56.51259
H         82.99913      102.32198       55.40863
H         82.33004      102.41293       58.42173
H         83.87436      102.50924       57.55964
H         83.87568      100.33244       58.15906
H         83.29342      100.19518       56.47699
N         81.61950      105.06414       56.93127
C         80.53533      104.63406       57.78952
H         79.75471      104.11868       57.19471
H         80.89557      103.98130       58.60273
H         80.06511      105.52012       58.26636
H         81.79016      106.08027       56.87091
Ca        78.80331      112.96290       48.00003
O         80.71835      114.90274       48.79249
H         80.45219      114.34636       49.56774
H         80.11125      115.68333       48.82898
O         77.55079      110.13117       47.29877
H         76.90724      109.38198       47.35923
H         78.04599      109.96590       46.45783
O         78.63607      111.76261       50.81890
H         78.94050      110.82052       50.81259
H         78.94012      112.11752       51.69171
O         80.57791      110.67625       47.97724
H         80.82532      111.44178       47.39942
H         80.94942      110.90720       48.86537

Ca 1.0



