%chk=apoCaM-CA-Ng.loop4.water5.frame501.chk
%nprocshared=20
%mem=10GB
%nosave
#b3lyp/svp scf=(tight,noincore,xqc) Test 
#IOP(5/87=12) Density=Current Pop=(MK,readradii) iop(6/33=2) iop(6/42=6)

apoCaM-CA-Ng.loop4.water5.frame501 

   -3  1 
C         58.99869       22.72130       52.92825
C         58.38955       22.46369       54.27622
O         58.89133       22.97600       55.26527
H         60.05117       22.36813       52.92604
H         58.45527       22.17546       52.12708
H         58.97211       23.80574       52.70181
N         57.31148       21.63956       54.39023
C         56.67596       21.25884       55.64772
C         56.15003       22.49932       56.36010
O         56.46084       22.71061       57.52533
C         57.62518       20.42440       56.56276
C         58.51534       19.46565       55.81416
O         58.47673       18.26373       56.01996
O         59.42110       20.00040       54.96713
H         56.91138       21.23343       53.52970
H         55.81393       20.60601       55.37980
H         57.01148       19.90392       57.33273
H         58.33090       21.09811       57.09204
N         55.38131       23.39839       55.68252
C         54.89455       24.64660       56.27053
C         53.37352       24.70112       56.23680
O         52.77623       24.01471       55.41894
C         55.48536       25.89322       55.52192
C         55.26086       25.82773       53.98654
C         56.97173       26.07677       55.86964
C         55.51997       27.15920       53.27733
H         55.14928       23.19471       54.69848
H         55.19368       24.69868       57.33692
H         54.96330       26.79869       55.88604
H         54.20203       25.56973       53.77732
H         55.90715       25.04178       53.53807
H         57.57239       25.21773       55.51250
H         57.37807       27.00755       55.42475
H         57.09337       26.16809       56.97046
H         55.31979       27.04173       52.19121
H         54.83321       27.93750       53.67471
H         56.56715       27.49932       53.39645
N         52.65139       25.53954       57.04272
C         53.21357       26.30323       58.16116
C         53.54124       25.40801       59.35119
O         54.37155       25.78916       60.16468
C         52.30571       27.47699       58.59234
C         50.97321       27.07006       59.16934
O         50.14762       26.48173       58.49053
O         50.66897       27.39652       60.43939
H         51.63995       25.59499       56.86334
H         54.14734       26.79232       57.83161
H         52.13508       28.14532       57.72031
H         52.85137       28.06652       59.36219
N         52.88804       24.22537       59.54041
C         53.13817       23.32115       60.65036
C         52.89931       23.97475       61.99327
O         51.83720       24.54288       62.20344
H         52.16117       23.93939       58.86835
H         54.17417       22.92361       60.58376
H         52.44191       22.45942       60.56158
N         53.84527       23.87759       62.97037
C         53.71187       24.45307       64.30576
C         54.89347       25.35099       64.66291
O         54.95075       25.80368       65.79877
C         53.49674       23.33633       65.36306
C         54.56222       22.27757       65.50249
O         55.53799       22.24356       64.77488
O         54.41631       21.32781       66.44543
H         54.69508       23.33264       62.76432
H         52.80043       25.08776       64.37064
H         52.54537       22.81312       65.12787
H         53.36974       23.82112       66.35605
N         55.85669       25.69122       63.75365
C         56.99005       26.53457       64.10012
C         58.02682       25.82404       64.95080
O         58.99023       26.47191       65.33328
H         55.77651       25.38950       62.77258
H         56.62247       27.45313       64.60781
H         57.50917       26.85092       63.16938
N         57.93690       24.48950       65.23807
C         58.93955       23.73085       65.97810
C         60.24324       23.78679       65.20720
O         61.22953       24.33591       65.67852
C         59.02982       24.19492       67.44804
C         57.65292       24.08748       68.13602
C         57.68368       24.39368       69.61234
N         56.53507       24.35101       70.32671
O         58.73365       24.67261       70.17303
H         57.14484       23.95516       64.87497
H         58.62802       22.66167       66.01155
H         59.39783       25.24004       67.52165
H         59.75253       23.53039       67.97124
H         57.25762       23.05561       68.01297
H         56.94750       24.79528       67.64913
H         55.64045       24.11979       69.86926
H         56.53739       24.55001       71.33799
N         60.26677       23.26295       63.94984
C         61.34325       23.48807       62.99006
C         62.40413       22.39939       63.08363
O         62.15463       21.35531       63.66773
C         60.69647       23.64802       61.57521
C         59.81092       24.90560       61.54549
C         61.69315       23.71065       60.41994
H         59.40266       22.81142       63.60939
H         61.86137       24.43810       63.25226
H         60.05332       22.76109       61.37508
H         60.42449       25.81464       61.72618
H         59.30840       25.00316       60.56025
H         59.01857       24.85391       62.31979
H         62.41751       24.54147       60.55127
H         62.20417       22.73428       60.34892
H         61.15805       23.84787       59.45612
N         63.65973       22.64421       62.59409
C         64.77893       21.70827       62.70789
C         65.40174       21.34076       61.36283
O         66.29817       20.50343       61.37225
C         65.83726       22.27679       63.68422
C         66.50792       23.57024       63.26794
N         67.40611       24.15106       64.09648
O         66.25247       24.09941       62.19613
H         63.84242       23.56759       62.18054
H         64.41910       20.75580       63.15361
H         66.63226       21.51516       63.84237
H         65.33719       22.44863       64.66205
H         67.63559       23.72325       65.00585
H         67.86976       25.03339       63.83328
N         65.01221       21.90140       60.17854
C         65.57192       21.52033       58.88448
C         65.03790       22.42911       57.78448
O         63.83326       22.45626       57.56600
C         65.24341       20.04137       58.55631
C         65.96995       19.56599       57.32260
C         67.20462       18.90792       57.45196
C         65.43477       19.77496       56.04154
C         67.89698       18.47384       56.31947
C         66.12737       19.33453       54.90967
C         67.36296       18.68510       55.04509
O         68.04432       18.26129       53.96178
H         64.31452       22.65225       60.18952
H         66.67805       21.63272       58.94696
H         64.14831       19.87350       58.45790
H         65.56033       19.38998       59.39379
H         67.63649       18.73948       58.43092
H         64.48216       20.27294       55.92015
H         68.85082       17.97456       56.43436
H         65.70551       19.49792       53.92920
H         67.71256       18.39052       53.06196
N         65.88941       23.19728       57.04996
C         65.48515       24.07131       55.95116
C         66.24761       23.64863       54.70017
O         67.46801       23.58652       54.79109
C         65.81937       25.52677       56.33025
C         65.44374       26.52632       55.22532
C         65.73742       27.93244       55.66229
O         66.53767       28.61517       55.04295
O         65.11163       28.45076       56.73659
H         66.89581       23.16175       57.28086
H         64.39195       24.01819       55.80631
H         66.90622       25.62001       56.55119
H         65.25430       25.77838       57.25538
H         64.36163       26.44449       54.98754
H         66.02468       26.29932       54.30432
N         65.68400       23.32125       53.49763
C         64.27303       23.41039       53.10284
C         64.15826       24.24856       51.82747
O         65.17308       24.69545       51.30950
C         63.68059       21.98009       52.92401
C         64.39447       21.17079       51.83288
C         63.98849       19.72565       51.66475
O         62.97902       19.10268       52.31676
O         64.62630       19.06439       50.86192
H         66.34240       23.00235       52.77007
H         63.66930       23.92010       53.87235
H         62.59743       22.04201       52.68670
H         63.78917       21.44970       53.89197
H         65.47475       21.14133       52.07001
H         64.26459       21.68212       50.85423
N         62.94253       24.49651       51.26061
C         62.77783       25.25546       50.03272
H         62.13939       26.14262       50.22443
H         63.74383       25.60820       49.61152
H         62.28616       24.61709       49.26865
H         62.09145       24.12821       51.70770
Ca        61.21278       19.41842       53.70989
O         63.32871       16.60476       54.30564
H         63.97179       16.40240       55.03092
H         63.84146       16.45834       53.47122
O         61.23287       17.05361       51.38663
H         61.60395       17.63648       50.67777
H         61.74336       16.20927       51.30779
O         62.00683       18.45775       56.77656
H         62.71317       18.04090       57.33117
H         61.29818       18.70650       57.42196
O         59.50867       16.24918       53.59219
H         58.74018       16.23715       52.96790
H         59.09801       16.22843       54.49189
O         61.89541       21.60317       55.75559
H         61.22170       21.27475       56.40172
H         61.37322       22.07892       55.06325

Ca 1.0



