%chk=apoCaM-CA-Ng.loop4.water8.frame1051.chk
%nprocshared=20
%mem=10GB
%nosave
#b3lyp/svp scf=(tight,noincore,xqc) Test 
#IOP(5/87=12) Density=Current Pop=(MK,readradii) iop(6/33=2) iop(6/42=6)

apoCaM-CA-Ng.loop4.water8.frame1051 

   -3  1 
C         52.45958       84.77124       56.20090
C         53.35512       84.44583       55.02975
O         53.45026       83.26796       54.71795
H         51.44414       84.37585       55.98529
H         52.84999       84.27489       57.11193
H         52.32707       85.84033       56.42786
N         54.02759       85.37152       54.28195
C         54.07506       86.81156       54.51741
C         53.27350       87.57342       53.47646
O         53.22625       88.79307       53.57307
C         55.54297       87.28985       54.48737
C         56.37975       86.61261       55.53456
O         57.34784       85.94406       55.20865
O         56.07596       86.75355       56.83878
H         54.54767       85.02099       53.46226
H         53.65629       87.08609       55.49896
H         55.58894       88.38616       54.66665
H         55.97376       87.09018       53.47972
N         52.61396       86.94795       52.45269
C         51.86886       87.69924       51.44180
C         52.77908       88.61333       50.61566
O         52.25620       89.44277       49.88563
C         51.03716       86.76616       50.50442
C         51.94175       85.84046       49.64345
C         50.00464       85.96639       51.32553
C         51.16930       85.02194       48.60721
H         52.63045       85.92212       52.39748
H         51.14792       88.35038       51.98622
H         50.46435       87.42454       49.81348
H         52.51501       85.14290       50.28668
H         52.66803       86.46352       49.07922
H         49.37458       86.65818       51.92358
H         49.32008       85.39773       50.66529
H         50.49574       85.24973       52.01615
H         50.59866       85.69509       47.93267
H         51.88538       84.43264       47.99619
H         50.47451       84.30595       49.09022
N         54.14112       88.51399       50.68031
C         55.07593       89.35772       49.93963
C         56.48489       88.99025       50.38044
O         56.84552       87.82549       50.27073
C         54.92584       89.15046       48.41219
C         55.77803       90.08555       47.58902
O         56.54409       91.03241       48.16642
O         55.75176       90.00313       46.37193
H         54.54758       87.79806       51.29609
H         54.86587       90.42245       50.18642
H         53.87848       89.32959       48.09925
H         55.18130       88.09876       48.15840
N         57.33007       89.91479       50.91906
C         58.62880       89.54461       51.46330
C         59.57992       88.90864       50.46376
O         60.61016       88.41759       50.90252
H         57.02569       90.89676       51.00063
H         58.44850       88.81075       52.27899
H         59.12257       90.43361       51.91270
N         59.32487       88.88099       49.12206
C         60.18877       88.22486       48.14916
C         59.35678       87.26518       47.29860
O         58.41098       87.72856       46.67575
C         60.83678       89.29593       47.25272
C         61.78172       88.68815       46.25152
O         62.85327       87.98739       46.67008
O         61.58569       88.83254       45.05558
H         58.49558       89.36670       48.75561
H         61.01370       87.69459       48.66559
H         61.41322       90.00383       47.88660
H         60.04509       89.87338       46.72519
N         59.63463       85.93518       47.15925
C         60.71769       85.25320       47.85403
C         60.94398       83.82792       47.36156
O         60.34164       83.44828       46.36718
H         59.03017       85.39994       46.51727
H         60.47599       85.26898       48.93335
H         61.65943       85.79480       47.65385
N         61.80792       82.94651       47.95892
C         62.52730       83.11865       49.22146
C         61.50153       83.25074       50.32938
O         61.43377       84.26184       51.01453
C         63.58597       84.24632       49.15223
C         64.56315       84.23929       50.34382
C         65.37801       82.96988       50.42032
N         66.20779       82.61441       49.41055
O         65.29121       82.25792       51.40955
H         61.91054       82.02147       47.51088
H         63.08576       82.17366       49.40312
H         63.10417       85.23882       49.12409
H         64.17553       84.12463       48.21844
H         63.99729       84.38233       51.28883
H         65.26538       85.09359       50.23776
H         66.30488       83.20364       48.57115
H         66.76162       81.74692       49.46912
N         60.60875       82.23707       50.48865
C         59.41894       82.30298       51.32729
C         58.19855       82.12092       50.42761
O         58.36233       81.96537       49.22365
C         59.48880       81.25737       52.47938
C         60.64428       81.59072       53.43485
C         59.61725       79.80851       51.98364
H         60.73712       81.38809       49.91545
H         59.32204       83.30609       51.79882
H         58.55375       81.32703       53.07555
H         60.51980       82.61802       53.84054
H         60.65144       80.88461       54.29261
H         61.62382       81.52919       52.91493
H         60.56648       79.65248       51.43038
H         59.60579       79.11087       52.84863
H         58.76621       79.54753       51.32443
N         56.93795       82.12475       50.94111
C         55.74471       81.95280       50.11475
C         55.06181       80.61945       50.38624
O         54.04781       80.34857       49.75673
C         54.76857       83.11375       50.39258
C         55.39660       84.46018       50.13402
N         55.81834       84.80452       48.89587
O         55.52006       85.25186       51.05561
H         56.81112       82.23819       51.95827
H         56.00584       81.95109       49.03447
H         54.44656       83.05997       51.45769
H         53.86274       83.01514       49.75615
H         55.71522       84.15549       48.10338
H         56.24526       85.72686       48.72715
N         55.53972       79.74379       51.31805
C         54.83996       78.51661       51.68158
C         55.24618       78.03835       53.06894
O         56.24288       78.49443       53.61378
C         54.93674       77.40814       50.60249
C         56.34555       76.95830       50.26472
C         56.76779       75.65201       50.57259
C         57.23750       77.81814       49.59675
C         58.05444       75.22088       50.22965
C         58.52086       77.38298       49.24973
C         58.93389       76.08181       49.56590
O         60.16597       75.64656       49.23111
H         56.37516       80.00511       51.85455
H         53.76855       78.79235       51.80367
H         54.45586       77.74705       49.66042
H         54.34202       76.54123       50.96458
H         56.10239       74.96252       51.07584
H         56.94118       78.82066       49.32330
H         58.36602       74.21260       50.47329
H         59.19049       78.05618       48.72853
H         60.80066       76.20593       48.76043
N         54.41314       77.20808       53.75693
C         54.59144       76.89736       55.16987
C         53.44549       77.54130       55.92921
O         52.67262       76.86140       56.59089
C         54.68096       75.37615       55.38109
C         55.91509       74.78993       54.68336
C         56.04058       73.32183       54.96501
O         56.02866       72.51595       54.04868
O         56.18414       72.88781       56.23230
H         53.55826       76.86224       53.29267
H         55.52455       77.34878       55.57320
H         53.75957       74.88253       54.99826
H         54.76216       75.17963       56.47309
H         56.83140       75.29692       55.05559
H         55.83994       74.95884       53.58718
N         53.27629       78.89083       55.83073
C         52.18479       79.63569       56.44275
C         51.24632       80.18009       55.36298
O         50.25936       80.81068       55.71250
C         52.80794       80.73523       57.34287
C         51.81874       81.62563       58.11641
C         50.88670       80.83531       58.98524
O         51.32296       80.11551       59.86883
O         49.55865       80.92760       58.78631
H         53.94626       79.42657       55.25583
H         51.57202       78.96534       57.08337
H         53.45107       81.39807       56.72442
H         53.46453       80.23156       58.08663
H         51.22925       82.24306       57.40960
H         52.39515       82.32720       58.75720
N         51.45119       79.92951       54.03322
C         50.55424       80.37498       52.98650
H         49.69111       80.95139       53.37914
H         51.11239       81.01397       52.27117
H         50.16273       79.48816       52.44408
H         52.26163       79.38000       53.71954
Ca        48.07116       79.74247       60.00189
O         46.61007       82.30375       60.99169
H         45.63154       82.35139       60.84890
H         46.71138       81.85733       61.86975
O         48.72871       78.42542       57.19705
H         48.58412       77.78081       56.46019
H         48.27743       79.25294       56.89397
O         46.05495       78.91874       62.09527
H         45.06521       78.91203       62.07719
H         46.29145       78.55981       62.98701
O         46.42157       77.11044       59.17452
H         45.47182       76.83388       59.21526
H         46.91387       76.36962       59.60902
O         49.42133       80.33143       62.65256
H         48.92159       79.67363       63.19811
H         50.21548       79.83395       62.33361
O         44.75258       79.84898       59.04719
H         44.43127       80.26574       59.88564
H         44.13050       79.09454       58.89214
O         46.98107       81.76268       57.67707
H         46.07929       82.01951       57.36034
H         47.57470       82.48822       57.35800
O         49.51625       77.03913       60.56347
H         49.99100       77.13901       61.42643
H         49.98530       77.65744       59.94875

Ca 1.0



