%chk=apoCaM-CA-Ng.loop2.water4.frame1405.chk
%nprocshared=20
%mem=10GB
%nosave
#b3lyp/svp scf=(tight,noincore,xqc) Test 
#IOP(5/87=12) Density=Current Pop=(MK,readradii) iop(6/33=2) iop(6/42=6)

apoCaM-CA-Ng.loop2.water4.frame1405 

   -2  1 
C         45.34543       81.52496       76.53607
C         45.61480       80.15343       75.96797
O         46.76154       79.93000       75.60732
H         44.31592       81.72335       76.86824
H         46.00686       81.68054       77.41465
H         45.59886       82.28623       75.76872
N         44.68979       79.15345       75.83626
C         43.27034       79.20069       76.19987
C         42.34362       78.95187       74.99550
O         41.13555       78.99855       75.18447
C         42.97540       78.19260       77.34507
C         43.17330       76.75289       76.95324
O         42.76321       75.74258       77.74166
O         43.61377       76.47208       75.85278
H         45.04844       78.27153       75.44323
H         42.99167       80.19129       76.58966
H         41.90929       78.31595       77.63649
H         43.59882       78.42434       78.23464
N         42.81736       78.72576       73.73123
C         41.93942       78.61645       72.56242
C         41.10766       77.33421       72.48227
O         40.24740       77.27812       71.61383
C         42.77997       78.70723       71.27863
H         43.83461       78.73258       73.57074
H         41.25208       79.49132       72.57524
H         42.13191       78.69458       70.37626
H         43.36593       79.65062       71.26989
H         43.48708       77.85008       71.22047
N         41.36063       76.23740       73.25466
C         40.69349       74.94538       73.05252
C         40.10511       74.37899       74.33451
O         40.17653       75.00875       75.37999
C         41.68090       73.94654       72.37150
C         42.97430       73.61202       73.08221
O         43.79260       72.91329       72.50799
O         43.32391       74.20523       74.23456
H         42.12532       76.28838       73.93424
H         39.84443       75.04923       72.34214
H         41.96069       74.39049       71.39180
H         41.16927       72.99271       72.13794
N         39.54633       73.13535       74.30852
C         39.15167       72.37665       75.47903
C         40.21773       71.33529       75.75621
O         41.30303       71.43267       75.19783
H         39.50889       72.62125       73.41776
H         38.17635       71.89088       75.25679
H         39.02814       73.00972       76.38370
N         39.98288       70.29813       76.60712
C         41.00637       69.30697       76.94232
C         41.58483       68.66413       75.68696
O         40.84246       68.08686       74.90493
C         40.42297       68.22037       77.87111
C         41.44682       67.21822       78.36580
N         41.05201       66.18409       79.14143
O         42.62934       67.33037       78.07550
H         39.04485       70.21755       77.02978
H         41.81488       69.83403       77.49748
H         39.62302       67.67586       77.32319
H         39.96804       68.70552       78.76150
H         40.06042       66.06647       79.39457
H         41.73874       65.49481       79.48217
N         42.92491       68.74341       75.44755
C         43.58852       68.20114       74.27271
C         44.25876       69.31384       73.49721
O         44.12085       70.46521       73.88423
H         43.52243       69.22308       76.13629
H         42.87187       67.68182       73.60200
H         44.35413       67.47153       74.61164
N         45.00563       69.09575       72.37941
C         45.31416       67.79555       71.79198
C         46.82814       67.55819       71.76186
O         47.25575       66.58208       71.16200
C         44.69266       67.71031       70.37436
C         43.15367       67.73892       70.42813
O         45.19729       68.71580       69.52752
H         45.40024       69.92633       71.90864
H         44.87760       66.96037       72.37849
H         44.96030       66.72854       69.92640
H         44.70680       69.55853       69.71546
H         42.78314       68.68794       70.87056
H         42.73525       67.63590       69.40488
H         42.77876       66.89292       71.04412
N         47.69182       68.37487       72.43869
C         49.14391       68.21448       72.47129
C         49.53867       67.84003       73.89808
O         49.08659       68.52678       74.80447
C         49.82101       69.56365       72.07765
C         49.31177       70.15042       70.73577
C         51.35489       69.44038       72.07807
C         49.56396       69.28106       69.50366
H         47.31361       69.14915       73.00269
H         49.47049       67.43441       71.75660
H         49.55534       70.31804       72.85266
H         49.80042       71.13657       70.57326
H         48.21916       70.33839       70.81131
H         51.81980       70.42094       71.84758
H         51.71603       69.12731       73.07881
H         51.70304       68.69504       71.33360
H         49.16258       69.80193       68.60852
H         50.64866       69.11718       69.34351
H         49.04736       68.30467       69.59602
N         50.37800       66.81303       74.23190
C         51.13534       65.97272       73.30154
C         52.47162       65.53220       73.92162
O         52.76009       65.89262       75.05568
C         50.26849       64.77499       72.83552
C         49.84568       63.82458       73.92842
O         49.16150       62.85479       73.64286
O         50.20680       64.01837       75.21160
H         50.55249       66.69116       75.24168
H         51.41709       66.56500       72.40828
H         50.82357       64.19184       72.07118
H         49.35106       65.16149       72.34559
N         53.32928       64.72267       73.23416
C         54.55858       64.17832       73.80882
C         55.73646       64.33910       72.85065
O         55.59709       63.92485       71.70682
C         54.32082       62.68437       74.10958
C         55.53380       62.02853       74.72673
C         56.54497       61.49974       73.90561
C         55.67328       61.95061       76.12299
C         57.67543       60.90513       74.47064
C         56.80967       61.35860       76.68461
C         57.80929       60.83620       75.85905
H         53.05675       64.39854       72.29434
H         54.78027       64.64825       74.78854
H         54.01336       62.12463       73.19919
H         53.46887       62.61656       74.82269
H         56.45763       61.54737       72.82766
H         54.91027       62.35706       76.77513
H         58.44875       60.50075       73.83051
H         56.91712       61.30645       77.76022
H         58.68792       60.37832       76.29435
N         56.96276       64.82246       73.24453
C         57.31856       65.23115       74.60043
C         56.71849       66.55214       75.03407
O         56.90730       66.92991       76.18263
C         58.84814       65.38668       74.54831
C         59.23219       64.41393       73.45032
C         58.14876       64.71272       72.42202
H         57.04692       64.40012       75.28600
H         59.10822       66.39948       74.15639
H         59.36247       65.25375       75.52416
H         60.26970       64.53118       73.07147
H         59.09475       63.37745       73.83091
H         58.34489       65.70221       71.95007
H         58.09389       63.92428       71.64096
N         56.06612       67.35161       74.14309
C         55.59361       68.68912       74.47036
C         56.76634       69.55484       74.94886
O         57.69087       69.73673       74.17028
C         54.86539       69.32360       73.25195
C         55.70841       69.49216       71.96569
C         54.86764       70.03043       70.84456
O         54.71215       69.37773       69.82440
O         54.29446       71.24400       70.95154
H         55.93093       67.00879       73.18456
H         54.82053       68.57632       75.24445
H         54.45923       70.31411       73.55342
H         54.01019       68.65866       73.00619
H         56.13191       68.51766       71.64614
H         56.54590       70.19885       72.12242
N         56.87339       70.10652       76.19731
C         55.93987       69.98457       77.30171
H         55.04744       69.37736       77.09626
H         56.46303       69.51809       78.16321
H         55.59872       70.99611       77.60399
H         57.71918       70.66359       76.39744
Ca        42.51055       74.01352       76.33403
O         44.45038       71.54559       77.12615
H         45.21992       71.01888       76.79398
H         43.84840       71.62414       76.34481
O         41.13558       73.37197       79.09978
H         41.45931       74.05050       79.74435
H         40.15860       73.52386       79.05004
O         44.36025       73.58201       79.30160
H         45.32579       73.41743       79.44546
H         44.15385       74.36580       79.86993
O         45.90582       74.31346       76.43418
H         45.83285       73.76569       75.61259
H         46.45398       73.76471       77.04957

Ca 1.0



