%chk=apoCaM-CA-Ng.loop2.water3.frame1431.chk
%nprocshared=20
%mem=10GB
%nosave
#b3lyp/svp scf=(tight,noincore,xqc) Test 
#IOP(5/87=12) Density=Current Pop=(MK,readradii) iop(6/33=2) iop(6/42=6)

apoCaM-CA-Ng.loop2.water3.frame1431 

   -2  1 
C         80.14076       95.32784       14.22196
C         80.01950       94.21255       13.21138
O         81.05833       93.66304       12.87499
H         80.82783       96.09793       13.81038
H         79.20878       95.85411       14.47909
H         80.58078       94.92948       15.15922
N         78.85167       93.80624       12.62556
C         77.50789       94.31141       12.90844
C         76.98180       95.20866       11.79100
O         75.87207       95.70688       11.92234
C         76.55003       93.13885       13.23106
C         76.30096       92.16192       12.10881
O         75.46701       91.12756       12.31167
O         76.82899       92.28940       11.01687
H         78.93890       93.08364       11.89534
H         77.50369       94.93973       13.81318
H         75.56605       93.55716       13.53548
H         76.95977       92.57548       14.09765
N         77.74263       95.52473       10.70083
C         77.32792       96.50607        9.69873
C         76.15001       96.06802        8.83589
O         75.69161       96.87397        8.03766
C         78.51492       96.80799        8.77015
H         78.68921       95.12574       10.62033
H         77.05813       97.44458       10.23032
H         79.38254       97.16483        9.36534
H         78.81850       95.88740        8.22286
H         78.25390       97.59360        8.03064
N         75.67286       94.79423        8.86314
C         74.72731       94.27401        7.87961
C         73.67617       93.37745        8.52595
O         73.66263       93.23147        9.74087
C         75.54761       93.54401        6.79319
C         76.48166       92.52729        7.38149
O         75.99874       91.51557        8.12190
O         77.68722       92.63767        7.22097
H         76.12821       94.11180        9.48096
H         74.17857       95.09404        7.36620
H         76.15359       94.30333        6.24983
H         74.89056       93.06338        6.04107
N         72.76847       92.72246        7.74354
C         71.73395       91.84150        8.25312
C         72.06561       90.41332        7.89580
O         73.04815       89.89966        8.40988
H         72.81596       92.82716        6.71984
H         70.76119       92.16063        7.81928
H         71.63628       91.90674        9.35619
N         71.29909       89.70599        7.01753
C         71.58971       88.31995        6.64955
C         72.97885       88.23217        6.03255
O         73.26404       88.95019        5.08384
C         70.54501       87.72824        5.67250
C         69.19291       87.44856        6.30630
N         68.34261       88.43468        6.67990
O         68.85044       86.28535        6.46285
H         70.50666       90.19008        6.58005
H         71.56417       87.68421        7.56335
H         70.94669       86.73891        5.35383
H         70.43538       88.35034        4.75879
H         68.55417       89.42674        6.53167
H         67.43123       88.19890        7.10047
N         73.90036       87.36546        6.54517
C         75.28458       87.30517        6.10248
C         75.98207       88.56637        6.54164
O         75.91194       88.85256        7.72691
H         73.62003       86.73204        7.30913
H         75.33754       87.11102        5.01239
H         75.78850       86.46165        6.62291
N         76.66252       89.40288        5.70844
C         76.97359       89.15362        4.30787
C         77.97281       88.01553        4.20496
O         77.87559       87.23497        3.27208
C         77.57308       90.43573        3.66672
C         77.96364       90.23933        2.19669
O         76.61966       91.46805        3.72325
H         77.04299       90.26260        6.12556
H         76.04593       88.92452        3.73690
H         78.50301       90.73166        4.21078
H         76.85205       92.04968        4.49180
H         77.08100       89.93011        1.59718
H         78.35831       91.19212        1.78404
H         78.76051       89.47345        2.09314
N         78.97658       87.89001        5.12509
C         80.03414       86.88607        5.06839
C         79.87223       85.94682        6.25906
O         79.84841       86.45167        7.37245
C         81.42691       87.58430        5.12752
C         81.54696       88.66379        4.02036
C         82.54394       86.52977        5.00625
C         82.87473       89.42383        4.04228
H         79.00423       88.54832        5.91865
H         80.00170       86.33660        4.11240
H         81.53235       88.09488        6.11179
H         80.74681       89.41984        4.17034
H         81.40718       88.20448        3.01828
H         82.45986       85.76260        5.80360
H         82.47773       86.02956        4.01863
H         83.54844       86.98204        5.12002
H         83.04014       89.88735        5.03817
H         83.72550       88.75657        3.79763
H         82.85116       90.22619        3.27569
N         79.80329       84.58244        6.16764
C         79.85855       83.78184        4.93857
C         80.06751       82.29592        5.23816
O         80.09250       81.91239        6.40399
C         78.55234       83.94480        4.10843
C         77.28844       83.51790        4.81460
O         76.22047       83.60983        4.23053
O         77.30811       83.04574        6.07596
H         79.75448       84.09049        7.07384
H         80.73761       84.10427        4.33928
H         78.63551       83.36727        3.16496
H         78.40830       84.98713        3.81278
N         80.16559       81.38527        4.22522
C         80.13129       79.94814        4.46412
C         81.28727       79.23355        3.78594
O         81.42803       79.39618        2.57754
C         78.76972       79.42110        3.98103
C         78.46534       78.09742        4.63019
C         79.01724       76.89756        4.15526
C         77.64924       78.07720        5.77520
C         78.74788       75.69498        4.81872
C         77.39408       76.87945        6.43979
C         77.94108       75.68755        5.96187
H         80.14329       81.71363        3.24588
H         80.14745       79.75953        5.55455
H         78.65779       79.40176        2.87412
H         78.01141       80.14852        4.34886
H         79.65153       76.89277        3.27777
H         77.23003       78.99572        6.16942
H         79.17009       74.76893        4.45261
H         76.77792       76.88104        7.32957
H         77.74177       74.76034        6.48173
N         82.14745       78.39991        4.44961
C         82.07667       78.04733        5.86286
C         82.44507       79.21837        6.75121
O         81.73600       79.44558        7.72284
C         83.01935       76.84229        5.97671
C         84.06466       77.10992        4.92085
C         83.22142       77.68521        3.78266
H         81.07208       77.67204        6.16060
H         83.39056       76.62036        7.00043
H         82.45754       75.94839        5.61811
H         84.74020       77.89369        5.31536
H         84.69409       76.24015        4.63670
H         83.85999       78.34258        3.15301
H         82.76542       76.88324        3.16045
N         83.48239       80.04861        6.45694
C         83.80218       81.21697        7.26439
C         84.64078       80.77840        8.45705
O         85.72654       80.26060        8.23350
C         84.57851       82.25609        6.42421
C         83.76737       82.72350        5.19870
C         84.51826       83.70550        4.34248
O         84.00589       84.11763        3.31467
O         85.75355       84.12644        4.67869
H         84.00715       79.89819        5.58446
H         82.85832       81.71722        7.57031
H         85.53618       81.81019        6.07491
H         84.80868       83.13886        7.06150
H         82.82014       83.19232        5.53897
H         83.51626       81.85369        4.55630
N         84.24664       80.92560        9.75347
C         82.98097       81.49389       10.15967
H         82.14381       80.88492        9.76431
H         82.90934       81.49129       11.26836
H         82.89529       82.54051        9.80195
H         84.88412       80.60405       10.49906
Ca        75.08133       89.73059       10.58644
O         72.43519       90.28771       11.97763
H         72.45015       89.30613       12.10569
H         71.85012       90.42287       11.19153
O         74.46164       86.85958       10.00699
H         74.12767       87.09894       10.90812
H         75.44711       86.84177       10.10384
O         78.05665       88.95682       10.41846
H         78.52233       89.71330        9.98115
H         77.93317       88.29004        9.69688

Ca 1.0



