%chk=apoCaM-CA-Ng.loop3.water2.frame521.chk
%nprocshared=20
%mem=10GB
%nosave
#b3lyp/svp scf=(tight,noincore,xqc) Test 
#IOP(5/87=12) Density=Current Pop=(MK,readradii) iop(6/33=2) iop(6/42=6)

apoCaM-CA-Ng.loop3.water2.frame521 

   0  1 
C         81.55575       71.81711       62.11963
C         82.47109       70.63228       62.00176
O         82.34198       69.87580       61.05002
H         80.50307       71.47554       62.19228
H         81.79350       72.42677       63.01750
H         81.67138       72.46265       61.22326
N         83.44777       70.42448       62.92688
C         84.41812       69.34041       62.83013
C         83.73459       67.99449       62.97009
O         83.13441       67.74339       64.00676
C         85.49721       69.53297       63.91719
C         86.73994       68.71739       63.71771
O         87.66656       68.85552       64.49864
O         86.90127       67.92779       62.63922
H         83.53517       71.10240       63.70056
H         84.90673       69.41520       61.83869
H         85.06206       69.34636       64.92254
H         85.83751       70.58914       63.88549
N         83.76049       67.08562       61.95179
C         83.07729       65.79980       62.04177
C         83.70368       64.95543       63.13610
O         83.02619       64.64499       64.10626
C         83.10026       65.07579       60.67358
C         82.24999       63.78968       60.65926
C         82.12373       63.17416       59.25251
C         83.43356       62.57780       58.71181
N         83.24933       62.07549       57.34909
H         84.24779       67.33489       61.07678
H         82.00891       66.00134       62.28563
H         84.14505       64.85313       60.38078
H         82.67162       65.77291       59.91981
H         81.22302       64.06181       60.98658
H         82.65287       63.03655       61.37067
H         81.74275       63.95221       58.55494
H         81.37279       62.35521       59.29365
H         83.76347       61.74744       59.37406
H         84.23564       63.33697       58.70001
H         82.51508       61.33105       57.33132
H         82.96996       62.85932       56.71425
H         84.15057       61.67290       57.00419
N         84.99828       64.53750       63.03664
C         85.63741       63.70501       64.05301
C         85.86846       64.43934       65.37142
O         86.12866       63.77662       66.36560
C         86.94998       63.09375       63.51409
C         87.93379       64.12471       63.02587
O         88.42646       65.04932       63.86486
O         88.28805       64.12727       61.85751
H         85.52380       64.78288       62.18489
H         84.95398       62.85202       64.26269
H         86.69270       62.42768       62.66153
H         87.42666       62.46790       64.29820
N         85.81263       65.79754       65.45729
C         85.99115       66.53715       66.69556
C         87.33337       66.30202       67.35603
O         87.34984       65.97878       68.53508
H         85.62859       66.34912       64.60900
H         85.17165       66.28308       67.40274
H         85.91168       67.62263       66.47198
N         88.49798       66.51019       66.67690
C         89.81983       66.48150       67.31331
C         90.92300       66.94065       66.36127
O         90.68693       67.10109       65.17063
C         90.19475       65.10297       67.93250
C         90.55271       64.04113       66.91964
N         89.63914       63.56731       66.04800
O         91.69057       63.59485       66.89871
H         88.41591       66.78699       65.69065
H         89.77534       67.22482       68.14045
H         89.39831       64.72083       68.60019
H         91.08530       65.25856       68.57921
H         88.67406       63.91499       66.06704
H         89.89803       62.84478       65.35945
N         92.17375       67.18125       66.84142
C         93.28040       67.62162       66.01078
C         92.97047       68.93816       65.33830
O         92.61271       69.88503       66.02512
H         92.35535       67.05904       67.84931
H         93.52385       66.83806       65.26020
H         94.17370       67.76076       66.65734
N         93.12294       69.07896       63.99016
C         92.86583       70.33739       63.29416
C         91.37442       70.61313       63.14988
O         90.56018       69.81300       63.58647
C         93.60822       70.36559       61.93650
C         95.10969       70.39757       62.12916
C         95.70930       71.46682       62.82362
C         95.92749       69.38256       61.60664
C         97.09307       71.51366       63.00028
C         97.31615       69.43568       61.77953
C         97.90225       70.50193       62.47884
O         99.23770       70.56821       62.65216
H         93.49834       68.28164       63.45290
H         93.26850       71.17173       63.90594
H         93.35121       71.28157       61.36731
H         93.29806       69.49264       61.32532
H         95.10941       72.27123       63.22947
H         95.49377       68.55370       61.06199
H         97.53607       72.34174       63.54010
H         97.93601       68.64945       61.36824
H         99.83739       69.89481       62.30154
N         90.96798       71.79906       62.60198
C         89.60337       72.32258       62.57883
C         88.62678       71.50325       61.74161
O         88.43585       70.33020       62.01567
C         89.03981       72.49622       64.02844
C         87.65959       73.21812       64.05496
C         90.03949       73.21652       64.95276
C         87.66596       74.66717       63.54913
H         91.69405       72.44449       62.25832
H         89.66994       73.33949       62.13926
H         88.87703       71.48764       64.46727
H         87.28324       73.22518       65.10096
H         86.92543       72.64706       63.45041
H         90.29870       74.22237       64.56536
H         89.61141       73.31537       65.97320
H         90.97847       72.63318       65.04847
H         86.64039       75.08503       63.62373
H         88.33461       75.30406       64.16280
H         87.97360       74.73055       62.48715
N         87.83753       72.12500       60.81590
C         86.61048       71.50887       60.31180
C         86.80203       70.35195       59.34305
O         85.81813       69.67636       59.07176
C         85.69483       72.56858       59.67859
O         85.41550       73.57071       60.62229
H         87.99456       73.12739       60.63162
H         86.07046       71.12654       61.19878
H         84.73328       72.10956       59.35969
H         86.20527       72.99202       58.78151
H         85.38019       74.43296       60.13292
N         87.99153       70.08241       58.73586
C         88.13123       68.99681       57.76568
C         88.02586       67.65016       58.45927
O         88.82826       67.40976       59.34795
C         89.48405       69.08653       57.05288
H         88.79790       70.69659       58.92341
H         87.35713       69.11967       56.98584
H         89.56913       68.27522       56.29825
H         89.57011       70.06249       56.53040
H         90.32295       68.99360       57.77313
N         87.10278       66.69323       58.15278
C         86.06832       66.78106       57.12655
C         86.66660       66.83153       55.72207
O         87.44630       65.93921       55.41716
C         85.17827       65.53357       57.20864
H         87.13877       65.82891       58.71899
H         85.40984       67.62760       57.36744
H         84.70688       65.49522       58.20794
H         84.36699       65.56163       56.45665
H         85.77074       64.60581       57.04796
N         86.33754       67.75380       54.76163
C         85.41786       68.88140       54.90072
C         86.09966       70.15819       54.45127
O         86.23102       71.07183       55.25421
C         84.13293       68.65325       54.07709
C         83.35120       67.42835       54.56789
C         82.04281       67.28738       53.84692
O         82.01785       67.12768       52.63709
O         80.88710       67.32559       54.53789
H         86.75648       67.61523       53.82838
H         85.09699       69.03392       55.94300
H         84.37041       68.52685       52.99863
H         83.48449       69.55061       54.19265
H         83.14653       67.53776       55.65556
H         83.95066       66.50896       54.40074
N         86.54072       70.29613       53.16718
C         87.16444       71.50018       52.65819
H         88.18238       71.25928       52.28795
H         86.55969       71.89369       51.81383
H         87.24606       72.29491       53.42861
H         86.42168       69.51766       52.50253
Ca        88.99603       67.20491       62.20631
O         91.55584       65.57267       62.09852
H         92.08561       65.63638       62.93248
H         92.02041       66.17243       61.46220
O         90.88352       69.01005       60.46704
H         91.46516       68.35691       60.00272
H         91.08597       69.87744       60.03490

Ca 1.0



