%chk=apoCaM-CA-Ng.loop4.water3.frame107.chk
%nprocshared=20
%mem=10GB
%nosave
#b3lyp/svp scf=(tight,noincore,xqc) Test 
#IOP(5/87=12) Density=Current Pop=(MK,readradii) iop(6/33=2) iop(6/42=6)

apoCaM-CA-Ng.loop4.water3.frame107 

   -3  1 
C         23.96382       64.88187      108.29734
C         23.64813       66.30753      108.62775
O         24.40103       66.90923      109.36736
H         24.90117       64.56401      108.80622
H         23.13504       64.22707      108.63337
H         24.10717       64.77684      107.20196
N         22.56073       66.92442      108.08714
C         22.21345       68.32432      108.31262
C         23.30781       69.26930      107.85394
O         23.90161       69.95743      108.66261
C         21.53252       68.61069      109.68274
C         22.07361       68.15197      111.02597
O         23.18020       68.64305      111.62417
O         21.37220       67.40171      111.68712
H         21.97132       66.38505      107.43513
H         21.37772       68.57563      107.61818
H         20.53940       68.11113      109.59896
H         21.31533       69.69840      109.74494
N         23.55739       69.36112      106.51080
C         24.47221       70.26574      105.80653
C         23.99904       71.71905      105.84130
O         23.64554       72.22495      104.78394
C         25.95919       70.08025      106.20505
C         26.91826       70.94001      105.32830
C         26.35120       68.59365      106.12861
C         26.89660       70.63386      103.82212
H         23.02091       68.72427      105.90024
H         24.40306       69.95925      104.73910
H         26.09643       70.41106      107.25657
H         27.95709       70.78231      105.68797
H         26.67959       72.01701      105.46411
H         27.42159       68.46351      106.37106
H         25.76231       67.99709      106.85573
H         26.17146       68.17804      105.11611
H         27.63302       71.28294      103.30354
H         27.17638       69.58018      103.61965
H         25.90364       70.84258      103.37529
N         23.93874       72.45516      106.98907
C         23.40164       73.80904      107.01431
C         24.38550       74.80894      106.40183
O         24.01063       75.40419      105.40126
C         22.88269       74.19039      108.42423
C         21.74184       73.31757      108.89703
O         21.31858       72.39414      108.21779
O         21.17651       73.56518      110.09358
H         24.22454       72.04181      107.87978
H         22.47862       73.82977      106.38726
H         22.50768       75.23602      108.39397
H         23.66933       74.11540      109.19048
N         25.64373       75.07930      106.87400
C         26.24388       74.47538      108.05724
C         27.65099       74.99004      108.36630
O         28.17197       75.77619      107.58803
H         26.18794       75.77531      106.34236
H         26.28482       73.37803      107.91355
H         25.61978       74.74487      108.90507
N         28.37896       74.60679      109.46759
C         27.97203       73.70090      110.54433
C         27.58322       72.35319      109.96138
O         26.43148       71.95974      110.08413
C         26.90017       74.36181      111.44950
C         26.65541       73.57513      112.70732
O         27.66574       73.34642      113.56795
O         25.53619       73.16818      112.97235
H         29.33514       74.98863      109.54650
H         28.84644       73.55232      111.21541
H         25.93866       74.50133      110.93108
H         27.26743       75.36409      111.75826
N         28.45774       71.60014      109.23354
C         29.87998       71.85971      109.07877
C         30.19261       72.37348      107.70418
O         29.27812       72.65673      106.94304
H         28.09339       70.77581      108.74180
H         30.43013       70.91674      109.28102
H         30.25556       72.61192      109.79826
N         31.48938       72.56146      107.33205
C         31.85835       73.22417      106.08732
C         32.45804       72.26712      105.06850
O         32.71202       72.70263      103.95342
C         32.75538       74.43989      106.40330
C         32.04098       75.38702      107.39165
C         32.78136       76.67877      107.61337
N         34.00869       76.69725      108.18181
O         32.25024       77.73173      107.29299
H         32.24298       72.26633      107.97344
H         30.94681       73.61935      105.58745
H         32.95628       74.98563      105.45580
H         33.72562       74.10539      106.83270
H         31.90204       74.88579      108.37513
H         31.03472       75.62546      106.98332
H         34.46993       75.82551      108.47784
H         34.49346       77.59395      108.33859
N         32.61659       70.93784      105.33650
C         32.95523       69.94243      104.32183
C         34.25527       69.20405      104.61474
O         34.60007       68.34407      103.81621
C         31.76426       68.94550      104.14196
C         30.56261       69.64225      103.48626
C         31.31860       68.27983      105.45733
H         32.42158       70.59194      106.28527
H         33.12292       70.42414      103.33253
H         32.08123       68.14165      103.44098
H         29.74011       68.91364      103.31924
H         30.18236       70.47115      104.11937
H         30.85631       70.05207      102.49590
H         30.88581       69.02141      106.16211
H         30.52492       67.53061      105.25141
H         32.16921       67.76468      105.94938
N         35.05078       69.49267      105.68915
C         36.32281       68.80675      105.92876
C         36.35079       68.05349      107.25162
O         37.30817       67.31914      107.46138
C         37.47378       69.83490      105.92174
C         37.59247       70.55715      104.60347
N         37.43419       71.90021      104.53245
O         37.84690       69.92364      103.59010
H         34.77549       70.24348      106.33682
H         36.51263       68.05166      105.13452
H         38.44306       69.32807      106.12247
H         37.29893       70.56645      106.74184
H         37.21899       72.45477      105.37394
H         37.52621       72.39046      103.63030
N         35.39926       68.21820      108.21634
C         35.53934       67.66295      109.55930
C         34.19914       67.35230      110.17928
O         33.33759       68.21878      110.15676
C         36.19941       68.70766      110.48195
C         37.64275       68.95638      110.14450
C         38.06994       70.22459      109.72519
C         38.58205       67.91907      110.27476
C         39.41857       70.45139      109.43802
C         39.92854       68.14812      109.98983
C         40.35217       69.41724      109.57162
O         41.65094       69.65442      109.30157
H         34.65208       68.91056      108.06816
H         36.16510       66.74382      109.55909
H         36.17573       68.34757      111.53531
H         35.60950       69.65096      110.43758
H         37.36119       71.03687      109.62217
H         38.27381       66.93483      110.60617
H         39.73813       71.43410      109.11693
H         40.64036       67.33976      110.10009
H         42.32708       68.96806      109.39392
N         34.04581       66.21076      110.92118
C         32.92969       65.91708      111.82218
C         31.70375       65.36757      111.11432
O         31.24668       64.29866      111.49776
C         32.62149       67.11375      112.75523
C         31.66274       66.73588      113.89192
C         31.48875       67.88118      114.84799
O         31.01719       68.94032      114.46552
O         31.85429       67.74202      116.13698
H         34.85401       65.57195      110.98162
H         33.28069       65.10273      112.49802
H         32.18328       67.96485      112.19507
H         33.58181       67.44480      113.21097
H         32.08178       65.86957      114.44827
H         30.67168       66.44911      113.48002
N         31.11021       66.02707      110.08311
C         29.89100       65.56587      109.42863
C         30.03787       64.19985      108.76124
O         29.02732       63.67213      108.31512
C         29.44172       66.58199      108.34990
C         29.23699       68.03498      108.82541
C         28.11848       68.16510      109.80940
O         26.98090       68.77385      109.43323
O         28.21172       67.69013      110.92968
H         31.52217       66.90418      109.76782
H         29.10414       65.47467      110.20813
H         28.49118       66.23296      107.88694
H         30.21877       66.59970      107.55658
H         28.98393       68.63163      107.92819
H         30.15545       68.48860      109.24491
N         31.23896       63.56508      108.63433
C         31.35243       62.26561      108.00892
H         32.41326       61.93650      108.00895
H         30.74989       61.52050      108.57121
H         30.99472       62.31699      106.95878
H         32.10642       64.00273      108.97219
Ca        25.26846       68.83912      110.85349
O         27.42298       69.96840      112.76686
H         27.00448       70.72659      113.24498
H         28.21471       70.36038      112.31976
O         23.55353       71.53796      111.34090
H         22.84973       71.33568      110.67653
H         23.43905       72.50185      111.53016
O         25.41537       66.96290      113.30003
H         26.26990       66.70139      112.87375
H         24.71840       66.55491      112.72696

Ca 1.0



