%chk=apoCaM-CA-Ng.loop2.water4.frame588.chk
%nprocshared=20
%mem=10GB
%nosave
#b3lyp/svp scf=(tight,noincore,xqc) Test 
#IOP(5/87=12) Density=Current Pop=(MK,readradii) iop(6/33=2) iop(6/42=6)

apoCaM-CA-Ng.loop2.water4.frame588 

   -2  1 
C         59.81645      108.79589        4.38389
C         58.57225      109.49072        4.85229
O         58.22948      109.39734        6.02264
H         60.67778      108.96600        5.05895
H         59.58729      107.70893        4.32967
H         60.08396      109.12121        3.35666
N         57.77611      110.09756        3.93144
C         56.41408      110.53638        4.20135
C         56.37660      111.65409        5.21155
O         56.81495      112.73806        4.88277
C         55.78415      111.01989        2.87473
C         54.31725      111.29181        2.99404
O         53.88226      112.41351        2.78999
O         53.47013      110.28888        3.29172
H         58.11216      110.12530        2.95709
H         55.86220      109.65116        4.59070
H         55.93027      110.25637        2.08130
H         56.31633      111.94116        2.54239
N         55.84518      111.48212        6.45210
C         55.83412      112.55359        7.44657
C         57.25157      112.95608        7.84922
O         58.16598      112.17070        7.63774
C         55.07875      112.06772        8.69670
H         55.43595      110.56535        6.68912
H         55.31459      113.42312        6.99702
H         54.03211      111.80652        8.43909
H         55.58244      111.17210        9.11717
H         55.04009      112.81037        9.50761
N         57.53549      114.12751        8.49617
C         56.56060      115.18417        8.78341
C         56.07746      115.90417        7.53447
O         56.66221      115.74431        6.47589
C         57.11029      116.13266        9.86246
C         58.38329      116.83710        9.42107
O         58.52436      117.20305        8.11388
O         59.08628      117.35920       10.27390
H         58.50624      114.25075        8.82818
H         55.66431      114.73603        9.22060
H         57.31741      115.49978       10.76040
H         56.33202      116.85987       10.18571
N         54.96316      116.68922        7.60132
C         54.30805      117.28927        6.44603
C         53.61981      116.27732        5.56055
O         53.56853      115.10662        5.90801
H         54.53256      116.84291        8.52281
H         55.04044      117.77712        5.79873
H         53.57516      118.04886        6.79463
N         53.09118      116.63255        4.35340
C         52.97120      118.00841        3.86952
C         53.89586      118.30895        2.67433
O         53.82822      119.40822        2.13919
C         51.48879      118.23863        3.51558
C         50.57079      117.89974        4.67214
N         49.58384      116.98301        4.52464
O         50.71650      118.46151        5.74770
H         52.71310      115.88353        3.74985
H         53.22976      118.73963        4.66074
H         51.21684      117.60859        2.63933
H         51.33539      119.30272        3.24504
H         49.44546      116.49112        3.62958
H         48.94213      116.77351        5.30401
N         54.78575      117.37774        2.21359
C         55.61964      117.50625        1.01978
C         56.73804      118.54871        1.03347
O         57.28087      118.78771       -0.03802
H         54.82866      116.47010        2.69002
H         54.96776      117.64260        0.12850
H         56.13562      116.53282        0.86489
N         57.22236      119.11229        2.18566
C         58.37287      120.03370        2.22451
C         59.62415      119.38154        2.82824
O         59.53667      118.63046        3.78522
C         58.06997      121.36294        2.96632
C         56.88297      122.10158        2.38484
O         57.78933      121.15815        4.32043
H         56.78967      118.83800        3.07464
H         58.64192      120.33521        1.18568
H         58.97894      122.00690        2.85854
H         58.43952      121.67616        4.86127
H         55.96778      121.48975        2.53310
H         56.76497      123.05334        2.94631
H         57.03390      122.31481        1.30836
N         60.84055      119.64609        2.27253
C         62.12267      119.05712        2.67672
C         62.68495      119.66086        3.97499
O         62.75073      120.87467        4.09827
C         63.15714      119.22889        1.52180
C         64.52493      118.58137        1.89149
C         62.61605      118.59465        0.22091
C         65.52360      118.50301        0.72999
H         60.84254      120.27337        1.45633
H         62.00057      117.96314        2.77161
H         63.30048      120.31665        1.33781
H         64.35843      117.54242        2.23923
H         64.98969      119.15201        2.72495
H         62.58820      117.48670        0.30438
H         61.60541      118.94383       -0.05962
H         63.26680      118.89926       -0.62191
H         66.47024      118.04137        1.07719
H         65.13756      117.84375       -0.07690
H         65.72889      119.50919        0.31130
N         63.17497      118.83766        4.95184
C         63.85267      119.23076        6.18350
C         65.15019      118.43389        6.47789
O         65.83436      118.79962        7.42483
C         62.88575      118.98542        7.33958
C         61.63869      119.80481        7.17267
O         61.69777      121.14549        7.25660
O         60.56926      119.26587        6.95159
H         63.01495      117.85747        4.84294
H         64.11586      120.30763        6.12666
H         63.36173      119.25559        8.30356
H         62.63587      117.89991        7.35216
N         65.55669      117.35805        5.73121
C         66.84153      116.68372        5.86279
C         66.70315      115.16288        5.58668
O         67.33196      114.68223        4.65462
C         67.78877      117.44430        4.88553
C         69.25681      117.07781        4.88058
C         69.93404      116.82449        6.08233
C         69.98690      117.05795        3.67135
C         71.29492      116.51876        6.08128
C         71.36350      116.79123        3.68029
C         72.01296      116.50976        4.88453
H         65.02590      117.10243        4.91220
H         67.23456      116.81796        6.89359
H         67.74951      118.50733        5.20990
H         67.38087      117.41794        3.84882
H         69.41489      116.85380        7.02626
H         69.50557      117.27594        2.72454
H         71.79097      116.29928        7.01635
H         71.93151      116.80451        2.75714
H         73.07338      116.29136        4.89412
N         65.91132      114.33293        6.35693
C         65.77171      112.87784        6.17379
C         65.37384      112.41484        4.76936
O         65.70463      111.30270        4.38282
C         64.64630      112.49078        7.14958
C         64.73219      113.53399        8.24555
C         65.14825      114.80115        7.49778
H         66.73667      112.40854        6.44994
H         63.65563      112.65162        6.66663
H         64.70080      111.43506        7.49717
H         63.79690      113.64875        8.83936
H         65.55460      113.24448        8.93530
H         64.27797      115.36394        7.12364
H         65.74659      115.43804        8.18729
N         64.60874      113.21238        3.98438
C         64.14848      112.88257        2.64091
C         65.34889      112.67475        1.74261
O         65.52495      111.58853        1.20709
C         63.22798      113.98460        2.03123
C         62.02479      114.41991        2.91215
C         62.28391      115.53087        3.87902
O         61.23672      116.28009        4.35050
O         63.41071      115.96764        3.92547
H         64.35192      114.08942        4.40576
H         63.54549      111.94666        2.69069
H         62.80155      113.53986        1.10483
H         63.79199      114.88825        1.70422
H         61.62325      113.54510        3.44722
H         61.27027      114.86405        2.23664
N         66.24365      113.68758        1.57341
C         67.45904      113.54901        0.80402
H         68.28772      113.23695        1.47519
H         67.33865      112.80828       -0.01299
H         67.71904      114.52956        0.35300
H         66.08784      114.58095        2.06452
Ca        59.86123      116.76276        6.22385
O         57.26848      118.56936        5.83810
H         57.80651      119.18975        5.31160
H         56.54879      119.14894        6.18461
O         57.58193      116.45298        3.81191
H         56.95078      115.76622        4.13497
H         57.74054      116.19567        2.87168
O         61.72764      115.34031        7.37411
H         61.61187      114.36117        7.35024
H         62.13721      115.55067        6.50031
O         59.27621      114.53533        4.79732
H         59.90603      113.78461        4.72817
H         58.48935      114.13756        5.22003

Ca 1.0



