%chk=apoCaM-CA-Ng.loop2.water3.frame246.chk
%nprocshared=20
%mem=10GB
%nosave
#b3lyp/svp scf=(tight,noincore,xqc) Test 
#IOP(5/87=12) Density=Current Pop=(MK,readradii) iop(6/33=2) iop(6/42=6)

apoCaM-CA-Ng.loop2.water3.frame246 

   -2  1 
C         46.80165       10.54877       91.05151
C         48.10871       10.17948       91.69444
O         49.05685       10.94781       91.62147
H         46.00619       10.59296       91.82589
H         46.86570       11.53758       90.54981
H         46.52484        9.78169       90.29741
N         48.21886        8.99521       92.35533
C         49.43112        8.55316       93.04006
C         50.61955        8.44421       92.10026
O         50.50297        7.83180       91.04694
C         49.21523        7.20384       93.76295
C         48.94610        6.03839       92.84270
O         49.71998        5.09481       92.81495
O         47.85054        6.01506       92.06058
H         47.38031        8.39721       92.39332
H         49.66608        9.29120       93.83930
H         48.37399        7.30039       94.48180
H         50.13518        6.98675       94.35182
N         51.82684        8.96280       92.46683
C         53.01998        8.84016       91.64060
C         52.84788        9.65742       90.38606
O         52.60136       10.85214       90.48776
C         54.26281        9.30558       92.40569
H         51.90735        9.42252       93.38709
H         53.18474        7.76649       91.39636
H         54.18042       10.37321       92.69831
H         54.38690        8.68941       93.32239
H         55.16806        9.16954       91.77461
N         52.97592        9.07861       89.16138
C         52.73874        9.80540       87.92164
C         54.06665       10.24482       87.32265
O         55.10528        9.91651       87.88167
C         51.89169        8.89196       87.00710
C         51.12138        9.59926       85.93636
O         50.32592       10.47371       86.24157
O         51.16612        9.16763       84.66533
H         53.24827        8.08429       89.10272
H         52.15012       10.72188       88.14727
H         51.10416        8.42183       87.63527
H         52.51547        8.06952       86.58943
N         54.11335       11.01773       86.20240
C         55.35922       11.45190       85.58449
C         55.46648       12.95517       85.42704
O         56.40386       13.38399       84.76829
H         53.23210       11.29096       85.74417
H         55.39127       11.00673       84.56865
H         56.25545       11.09314       86.13689
N         54.57724       13.82488       85.99342
C         54.62815       15.26847       85.75769
C         53.76118       15.97887       86.78609
O         52.57050       15.70859       86.86430
C         54.21055       15.56057       84.29300
C         54.29560       17.01445       83.89511
N         53.41976       17.92404       84.37780
O         55.14419       17.36703       83.08934
H         53.84825       13.45285       86.62031
H         55.67627       15.61576       85.90285
H         53.18291       15.18643       84.09520
H         54.89772       14.99684       83.62753
H         52.66242       17.63919       85.01072
H         53.47465       18.91099       84.08596
N         54.32697       16.86469       87.65588
C         53.61649       17.45947       88.77558
C         52.50630       18.41261       88.39492
O         52.27079       18.67312       87.22542
H         55.33535       17.06984       87.57780
H         54.34353       18.03824       89.38816
H         53.20615       16.64706       89.41169
N         51.80011       19.00799       89.39477
C         50.76951       20.02019       89.17434
C         49.56364       19.51764       88.38258
O         48.90579       20.34536       87.76674
C         50.30673       20.66729       90.51199
C         49.69322       19.67121       91.51672
O         51.36448       21.37735       91.11049
H         52.06542       18.76256       90.35889
H         51.23370       20.83364       88.57149
H         49.51919       21.41465       90.27153
H         51.99791       20.72499       91.50731
H         49.33885       20.21726       92.41587
H         48.83558       19.13865       91.07453
H         50.42745       18.90993       91.84945
N         49.17136       18.21059       88.39584
C         47.99383       17.71244       87.67375
C         48.38950       16.64777       86.66497
O         49.56984       16.34447       86.54424
C         46.88147       17.24561       88.67471
C         47.32890       16.24573       89.77382
C         46.24604       18.47878       89.33886
C         47.78703       14.88763       89.24814
H         49.71650       17.53842       88.95633
H         47.53984       18.51463       87.05077
H         46.04962       16.77707       88.10967
H         46.45574       16.04700       90.43389
H         48.12700       16.68817       90.40633
H         45.83471       19.16216       88.56494
H         45.40421       18.17539       89.99705
H         46.97828       19.04347       89.94044
H         46.97978       14.42080       88.64525
H         48.70965       14.97520       88.64450
H         48.01343       14.22060       90.10686
N         47.43814       16.03658       85.89548
C         47.74633       15.01844       84.90132
C         47.08370       15.39149       83.57464
O         46.43949       14.55481       82.95925
C         47.26197       13.66174       85.46465
C         47.66340       12.45082       84.66980
O         48.32922       12.54922       83.65154
O         47.29198       11.23200       85.10592
H         46.44527       16.27822       86.02984
H         48.84629       14.96313       84.74851
H         46.15422       13.68627       85.57032
H         47.69922       13.52849       86.47679
N         47.14573       16.67505       83.11476
C         46.47394       17.14450       81.90018
C         44.99106       16.76285       81.90516
O         44.31449       17.05813       82.87961
C         46.66799       18.67532       81.76536
C         45.92814       19.28895       80.59625
C         46.59423       19.58724       79.39542
C         44.55953       19.59756       80.71276
C         45.89864       20.17009       78.32932
C         43.87186       20.18798       79.64999
C         44.53987       20.47192       78.45763
H         47.65993       17.36383       83.68584
H         46.97689       16.67545       81.03173
H         47.75991       18.85686       81.65328
H         46.35162       19.20481       82.69091
H         47.64667       19.36185       79.28032
H         44.02598       19.39620       81.63249
H         46.41317       20.39183       77.40351
H         42.82153       20.42930       79.75374
H         44.00477       20.92950       77.63539
N         44.40905       16.11893       80.83967
C         43.01423       15.69350       80.76928
C         42.59646       14.75161       81.88168
O         41.50571       14.90724       82.41165
C         42.93637       14.93723       79.43404
C         43.93181       15.69159       78.59397
C         45.08235       15.86156       79.57813
H         42.36060       16.59457       80.73534
H         43.34791       13.90704       79.54619
H         41.91131       14.86099       79.01175
H         44.21066       15.21061       77.63264
H         43.49708       16.69620       78.37982
H         45.69555       14.93868       79.67869
H         45.69448       16.71420       79.21558
N         43.41728       13.72948       82.26405
C         43.05025       12.70229       83.24092
C         42.68995       13.25197       84.62000
O         42.22753       12.46670       85.43773
C         44.19977       11.67880       83.41430
C         44.54055       10.89535       82.13608
C         45.70834        9.97883       82.37759
O         45.63607        9.01887       83.31978
O         46.73016       10.10137       81.72068
H         44.33567       13.66821       81.80386
H         42.15019       12.17466       82.85406
H         43.92275       10.93747       84.19662
H         45.09774       12.22908       83.76118
H         44.80095       11.58400       81.30643
H         43.66198       10.29173       81.82447
N         42.85623       14.55839       84.96966
C         42.45688       15.05407       86.26885
H         41.36509       14.89911       86.41083
H         43.01355       14.52154       87.06843
H         42.67107       16.14104       86.34315
H         43.27306       15.22958       84.31463
Ca        49.41194        9.81354       83.40521
O         50.38731        9.91103       80.67958
H         50.80143        9.18355       81.20971
H         50.54440       10.73046       81.21397
O         48.44349        7.56777       85.83696
H         48.09522        6.65383       85.68269
H         48.59490        7.61449       86.81449
O         48.49805        7.12966       82.33368
H         47.59711        6.78360       82.11310
H         49.01751        6.32793       82.59382

Ca 1.0



