%chk=apoCaM-CA-Ng.loop3.water5.frame393.chk
%nprocshared=20
%mem=10GB
%nosave
#b3lyp/svp scf=(tight,noincore,xqc) Test 
#IOP(5/87=12) Density=Current Pop=(MK,readradii) iop(6/33=2) iop(6/42=6)

apoCaM-CA-Ng.loop3.water5.frame393 

   0  1 
C         21.10242       94.99516       26.72607
C         22.12822       95.29689       25.67423
O         23.27639       94.90467       25.82204
H         20.26843       94.41413       26.27936
H         21.54577       94.41036       27.55923
H         20.70139       95.94799       27.13303
N         21.76877       96.02018       24.57802
C         22.66981       96.41562       23.50165
C         23.77731       97.31340       24.04310
O         24.94992       97.07584       23.78766
C         23.17067       95.16847       22.72999
C         23.92472       95.47864       21.46141
O         24.35320       94.55981       20.78180
O         24.12029       96.74756       21.05162
H         20.78847       96.33584       24.50676
H         22.06976       97.02847       22.79151
H         22.28745       94.55690       22.44287
H         23.81826       94.55174       23.38796
N         23.44676       98.36848       24.83911
C         24.40557       99.32551       25.37998
C         24.62132       99.12684       26.87585
O         25.31299       99.94267       27.47101
C         23.89193      100.75328       25.10347
C         23.78870      101.05913       23.59924
C         23.30136      102.49114       23.31912
C         21.83686      102.72177       23.73248
N         21.41693      104.08829       23.42473
H         22.45553       98.49408       25.09822
H         25.40580       99.21080       24.90605
H         24.59273      101.49145       25.55207
H         22.90425      100.86535       25.59680
H         23.11304      100.33692       23.09181
H         24.80422      100.95009       23.15921
H         23.38157      102.67234       22.22523
H         23.96528      103.21653       23.83856
H         21.70261      102.55092       24.82063
H         21.18607      102.00571       23.18248
H         21.51974      104.27827       22.40153
H         20.41267      104.20569       23.69166
H         21.99292      104.76963       23.97085
N         24.12199       98.04468       27.54522
C         24.35477       97.80826       28.96949
C         25.85079       97.76987       29.23499
O         26.54866       97.04554       28.54015
C         23.66916       96.49608       29.40025
C         23.58912       96.37367       30.89713
O         22.49860       96.34033       31.44454
O         24.69891       96.30164       31.64805
H         23.57696       97.34489       27.02393
H         23.88025       98.63841       29.53854
H         24.18479       95.61525       28.95558
H         22.62507       96.50549       29.01695
N         26.42117       98.58275       30.17120
C         27.86220       98.75381       30.28375
C         28.65752       97.49919       30.58392
O         29.86524       97.55492       30.39675
H         25.81697       99.17506       30.76056
H         28.10624       99.52835       31.04316
H         28.21274       99.13819       29.30082
N         28.09303       96.34874       31.05803
C         28.85901       95.11605       31.23003
C         28.14057       93.93769       30.58259
O         28.00103       92.89441       31.20557
C         29.22500       94.88807       32.71732
C         28.06236       94.69593       33.66091
N         28.29684       94.50497       34.97828
O         26.91303       94.70803       33.25151
H         27.09732       96.34405       31.30407
H         29.83079       95.21110       30.69731
H         29.80931       95.76671       33.06831
H         29.88200       93.99378       32.79049
H         29.25971       94.48680       35.34486
H         27.51330       94.37887       35.63396
N         27.67118       94.03456       29.30559
C         27.08144       92.92172       28.57422
C         25.82541       92.29898       29.17128
O         25.39687       91.29149       28.63237
H         27.79722       94.92280       28.80066
H         27.85047       92.12355       28.50562
H         26.84306       93.25189       27.53866
N         25.16808       92.82314       30.24710
C         24.01300       92.17306       30.87211
C         24.15638       92.24202       32.38277
O         24.43268       93.30565       32.91266
C         22.69869       92.81155       30.40158
C         21.52039       92.22920       31.15517
C         21.22397       90.85322       31.10591
C         20.73247       93.06785       31.95734
C         20.17175       90.33067       31.86585
C         19.68331       92.54452       32.71422
C         19.40339       91.17216       32.67721
O         18.40557       90.65322       33.42024
H         25.48017       93.72443       30.63288
H         23.95621       91.10507       30.57048
H         22.57440       92.63935       29.30991
H         22.75077       93.90018       30.56720
H         21.81526       90.17972       30.49845
H         20.94131       94.12761       32.01130
H         19.96191       89.26855       31.83527
H         19.09669       93.20731       33.33691
H         17.86475       91.20160       34.00676
N         23.96130       91.12671       33.14305
C         24.28789       91.08951       34.56403
C         25.79649       91.20059       34.63984
O         26.30733       92.08329       35.31313
C         23.75364       89.78038       35.23250
C         22.19834       89.77137       35.17564
C         24.23953       89.67594       36.69526
C         21.54928       88.49235       35.71032
H         23.65020       90.25942       32.68292
H         23.80669       91.93847       35.10079
H         24.14746       88.90120       34.67622
H         21.86746       89.87712       34.12320
H         21.79576       90.63818       35.74585
H         23.85775       90.52590       37.30017
H         23.91142       88.72518       37.16131
H         25.34681       89.67501       36.74747
H         21.75461       88.34597       36.78963
H         20.44675       88.56595       35.59217
H         21.90757       87.61038       35.13941
N         26.56374       90.36515       33.88656
C         28.01803       90.41151       33.83241
C         28.60712       89.98852       35.15817
O         29.57288       90.59905       35.59331
C         28.54953       89.50436       32.70913
O         28.17339       89.99260       31.44606
H         26.07656       89.67080       33.29813
H         28.35910       91.44294       33.58511
H         28.21908       88.45015       32.83613
H         29.66034       89.51141       32.74014
H         27.19398       89.86604       31.34990
N         28.02491       88.98573       35.88518
C         28.46596       88.52791       37.20174
C         28.39221       89.59404       38.30130
O         28.70089       89.26414       39.43895
C         29.87417       87.92658       37.10353
H         27.20302       88.50732       35.48663
H         27.78322       87.70581       37.51344
H         29.88443       87.12256       36.33630
H         30.62663       88.69234       36.82569
H         30.17249       87.47970       38.07526
N         28.01538       90.88287       38.05669
C         28.00416       91.92537       39.06951
C         26.85738       91.73402       40.02839
O         25.71871       91.67355       39.58395
C         27.85528       93.30158       38.40918
H         27.75681       91.16799       37.11039
H         28.98414       91.94083       39.59700
H         28.70171       93.47499       37.71174
H         26.90385       93.36692       37.84200
H         27.87009       94.10236       39.17935
N         27.08365       91.69992       41.37110
C         26.02553       91.67861       42.37342
C         25.19764       90.41284       42.24465
O         23.98748       90.48427       42.07127
C         25.16054       92.96556       42.28280
C         26.00556       94.25057       42.37434
C         25.18534       95.50687       42.23296
O         23.97557       95.46223       42.06851
O         25.80174       96.70320       42.27141
H         28.05617       91.74758       41.71192
H         26.50174       91.66727       43.37938
H         24.41347       92.96065       43.10692
H         24.60519       92.98160       41.32146
H         26.75934       94.25892       41.55863
H         26.53730       94.27535       43.34910
N         25.80450       89.19803       42.31551
C         25.06220       87.96304       42.19020
H         24.54858       87.92775       41.20550
H         25.75276       87.09665       42.26285
H         24.30907       87.88981       43.00347
H         26.82514       89.14727       42.45511
Ca        24.46862       96.16112       33.88809
O         26.51453       97.57639       35.60888
H         27.20896       96.98249       35.98936
H         25.77191       97.53918       36.26286
O         23.88754       99.15505       33.71556
H         23.01744       98.77776       33.43010
H         23.87462       99.08741       34.70340
O         22.80862       97.02190       36.38265
H         23.01262       97.69324       37.08097
H         22.11406       96.44407       36.78732
O         21.83923       94.64130       34.53857
H         22.00531       94.03459       35.30288
H         20.90896       94.95539       34.66655
O         24.84664       94.71110       36.67896
H         24.51993       94.15320       37.42852
H         24.64871       94.17757       35.86935

Ca 1.0



