%chk=apoCaM-CA-Ng.loop1.water1.frame817.chk
%nprocshared=20
%mem=10GB
%nosave
#b3lyp/svp scf=(tight,noincore,xqc) Test 
#IOP(5/87=12) Density=Current Pop=(MK,readradii) iop(6/33=2) iop(6/42=6)

apoCaM-CA-Ng.loop1.water1.frame817 

   0  1 
C         63.53115       66.79217       65.21153
C         64.84797       66.29087       64.69101
O         65.32012       65.26630       65.16170
H         62.74343       66.03087       65.04466
H         63.62370       66.99794       66.29913
H         63.22610       67.73645       64.71086
N         65.51079       66.98616       63.72568
C         66.84165       66.62265       63.22199
C         67.87720       66.53871       64.34844
O         67.56095       66.83021       65.49349
C         67.26794       67.53094       62.02390
C         66.75053       68.95335       62.08463
O         67.06967       69.79048       63.08619
O         65.95759       69.33228       61.23594
H         65.03364       67.81914       63.35628
H         66.79618       65.58406       62.82427
H         66.80418       67.08674       61.11413
H         68.36543       67.49873       61.85732
N         69.12475       66.04314       64.09179
C         70.05864       65.61620       65.13444
C         71.15971       66.63807       65.36744
O         72.32744       66.34404       65.15419
C         70.61684       64.20939       64.78809
C         69.52495       63.12248       64.83360
C         70.05192       61.71367       64.50011
C         70.40542       61.54056       63.01283
N         70.85626       60.17568       62.73642
H         69.37812       65.82804       63.11522
H         69.54368       65.52227       66.11718
H         71.38998       63.92805       65.53810
H         71.10125       64.25052       63.78987
H         68.68334       63.36802       64.15092
H         69.12881       63.09657       65.87253
H         69.24737       60.98406       64.73870
H         70.92988       61.47677       65.14090
H         71.20468       62.25001       62.71331
H         69.50009       61.75278       62.40086
H         71.04603       60.07775       61.71259
H         71.73672       59.97505       63.26397
H         70.11802       59.48577       63.00749
N         70.84182       67.83648       65.93473
C         71.82568       68.80751       66.41141
C         71.13435       69.93037       67.17719
O         70.25271       70.55720       66.60891
C         72.77735       69.36666       65.33301
C         72.26200       70.12303       64.13953
O         73.08861       70.64995       63.41344
O         70.97477       70.21988       63.77282
H         69.84711       68.01238       66.14128
H         72.49969       68.27552       67.10065
H         73.40817       68.54666       64.93565
H         73.46055       70.06014       65.87162
N         71.44745       70.28098       68.46252
C         72.52627       69.73917       69.27735
C         72.34780       68.27907       69.60805
O         71.29479       67.90371       70.10276
H         70.90324       71.04761       68.88945
H         72.54159       70.29127       70.24246
H         73.50212       69.92465       68.77740
N         73.37465       67.40485       69.39943
C         73.29663       65.98064       69.68712
C         74.18772       65.67119       70.86997
O         75.37485       65.96815       70.82806
C         73.71007       65.17976       68.43920
C         73.57224       63.69784       68.65381
O         72.48221       63.21320       68.91385
O         74.64916       62.89623       68.54960
H         74.27255       67.77131       69.04438
H         72.25219       65.69654       69.94142
H         74.76228       65.42174       68.16931
H         73.06002       65.46842       67.58720
N         73.66446       65.07748       71.98016
C         74.44310       64.81238       73.17424
C         74.79492       66.06884       73.95023
O         75.46826       65.93911       74.95999
H         72.67540       64.78488       71.97717
H         75.35981       64.24622       72.90107
H         73.84263       64.17624       73.86137
N         74.33692       67.30607       73.58256
C         74.54035       68.49730       74.40390
C         74.63672       69.75860       73.54852
O         74.52053       69.69468       72.33539
C         73.41023       68.60232       75.46604
C         72.01747       68.69272       74.83496
O         73.44023       67.48592       76.31689
H         73.70971       67.39307       72.77362
H         75.51446       68.42084       74.93620
H         73.54464       69.51941       76.08293
H         74.19568       67.62433       76.94705
H         71.79111       67.77825       74.24785
H         71.25312       68.79279       75.63420
H         71.94178       69.57253       74.16510
N         74.87333       70.95554       74.16061
C         75.01557       72.23009       73.45927
C         76.42070       72.74371       73.72359
O         77.15865       72.99871       72.78013
C         73.95774       73.26776       73.94790
C         72.53250       72.66021       73.96376
C         74.01982       74.52329       73.05003
C         71.46949       73.60827       74.52541
H         74.96840       70.95628       75.18292
H         74.86827       72.08628       72.36526
H         74.19750       73.55943       74.99407
H         72.53788       71.77758       74.63549
H         72.23538       72.32797       72.94559
H         73.33756       75.31817       73.40998
H         75.03990       74.95951       73.04398
H         73.74218       74.26329       72.00466
H         71.32321       74.49041       73.87092
H         70.49785       73.07533       74.59210
H         71.75546       73.94693       75.54457
N         76.86945       72.84595       75.00783
C         78.22048       73.21828       75.39233
C         78.14136       74.23083       76.51494
O         77.49971       73.94244       77.51896
C         78.98116       71.96988       75.89124
C         79.05868       70.88722       74.80765
O         80.28321       72.34865       76.25929
H         76.23961       72.56660       75.77445
H         78.78604       73.62966       74.52531
H         78.44221       71.55224       76.77500
H         80.62890       71.64388       76.86655
H         79.62070       70.01071       75.19202
H         78.04267       70.54053       74.52344
H         79.57510       71.27733       73.90473
N         78.78897       75.42243       76.43610
C         78.73205       76.41965       77.49555
C         78.14881       77.69587       76.93564
O         77.09803       78.11560       77.39930
C         80.13027       76.60147       78.14840
C         80.11709       77.65626       79.25890
O         81.10799       76.95516       77.20401
H         79.35125       75.62722       75.59515
H         78.05593       76.08383       78.31477
H         80.41310       75.63511       78.63128
H         81.48544       76.11153       76.84110
H         79.37430       77.38947       80.04012
H         81.12065       77.71627       79.73145
H         79.86750       78.65793       78.84775
N         78.79622       78.38110       75.95368
C         78.32092       79.65048       75.42583
C         78.34439       79.65127       73.91064
O         78.85415       78.71909       73.30388
C         79.16452       80.78995       76.04167
C         80.67220       80.70394       75.73138
C         81.46430       81.68358       76.60563
C         82.97108       81.58088       76.33147
N         83.72906       82.41008       77.26820
H         79.69318       78.01904       75.60631
H         77.26834       79.82164       75.74144
H         79.02688       80.71803       77.14356
H         78.77905       81.78188       75.72069
H         80.84573       80.90157       74.65109
H         81.05649       79.69280       75.97325
H         81.28079       81.42185       77.67175
H         81.12143       82.72616       76.42997
H         83.17952       81.90461       75.28765
H         83.30327       80.52431       76.44390
H         83.58179       82.06551       78.24544
H         84.74728       82.34188       77.04084
H         83.42786       83.40874       77.19799
N         77.79353       80.69377       73.23199
C         77.84148       80.81535       71.78191
C         77.20723       79.61681       71.07084
O         77.89631       79.03149       70.24730
C         77.24472       82.16964       71.33799
C         77.52066       82.47052       69.85851
C         77.00737       83.83261       69.48993
O         75.81512       84.08350       69.56579
O         77.86327       84.78598       69.07421
H         77.34777       81.44734       73.77767
H         78.91744       80.85494       71.49496
H         77.73532       82.97090       71.93458
H         76.15964       82.22122       71.54248
H         77.04116       81.71035       69.20629
H         78.61928       82.44349       69.68566
N         75.94703       79.14241       71.30581
C         75.02913       79.65236       72.30145
H         74.09689       79.04714       72.28829
H         75.46914       79.56224       73.31501
H         74.74511       80.69732       72.09017
H         75.62937       78.32612       70.75892
Ca        68.92148       69.52319       64.28222
O         66.63948       69.33442       67.27366
H         67.24484       68.72447       67.76577
H         65.78641       69.29530       67.77515

Ca 1.0



