%chk=apoCaM-CA-Ng.loop4.water5.frame615.chk
%nprocshared=20
%mem=10GB
%nosave
#b3lyp/svp scf=(tight,noincore,xqc) Test 
#IOP(5/87=12) Density=Current Pop=(MK,readradii) iop(6/33=2) iop(6/42=6)

apoCaM-CA-Ng.loop4.water5.frame615 

   -3  1 
C         95.45920      119.11266       96.30815
C         96.94146      119.12099       96.09464
O         97.38247      119.10659       94.95428
H         94.92013      119.09250       95.33714
H         95.17535      118.21375       96.89477
H         95.16105      120.02431       96.86675
N         97.77807      119.14501       97.17098
C         99.23213      119.14915       97.07516
C         99.68102      120.40159       96.35442
O        100.22840      120.32788       95.26200
C         99.77576      117.85131       96.44649
C         99.24663      116.63471       97.15236
O         98.07774      116.30974       97.01283
O        100.05893      115.86139       97.89464
H         97.36455      119.16297       98.11563
H         99.65678      119.18154       98.10417
H        100.88468      117.87325       96.53331
H         99.52662      117.76383       95.36666
N         99.47171      121.60763       96.94851
C         99.78949      122.88953       96.33302
C        101.07782      123.45375       96.94175
O        101.19296      123.42807       98.15943
C         98.59592      123.89589       96.43890
C         98.10162      124.11133       97.89581
C         97.43959      123.44609       95.53070
C         97.09380      125.25213       98.04082
H         99.10544      121.60197       97.91095
H         99.94774      122.70663       95.26207
H         98.96262      124.86849       96.03922
H         98.95875      124.36969       98.54690
H         97.62867      123.18425       98.28403
H         96.62123      124.19191       95.50385
H         97.80453      123.36683       94.49501
H         97.03243      122.46309       95.84745
H         96.81451      125.35540       99.11051
H         97.54691      126.20602       97.69819
H         96.16243      125.05878       97.47307
N        102.12550      123.95090       96.20458
C        102.12147      124.16681       94.75682
C        103.04329      123.22684       94.00577
O        102.91390      123.17933       92.79381
C        102.40967      125.64349       94.40540
C        103.79549      126.13781       94.74323
O        104.72088      125.33120       95.29811
O        104.09124      127.29451       94.49122
H        102.97205      124.23158       96.72084
H        101.12202      124.00159       94.34914
H        101.66526      126.28096       94.93007
H        102.26316      125.78384       93.31054
N        103.97467      122.43587       94.61075
C        104.83034      121.54357       93.84380
C        105.74736      122.31093       92.90893
O        106.60883      123.03585       93.38551
H        104.08019      122.44717       95.63556
H        104.18398      120.83947       93.27546
H        105.46162      120.93746       94.52839
N        105.60175      122.19794       91.55703
C        106.46096      122.86181       90.57444
C        105.73877      123.97361       89.81418
O        106.32799      124.53206       88.89869
C        107.09764      121.81411       89.62011
C        106.16230      120.96399       88.78826
O        104.82510      121.05444       88.89312
O        106.63633      120.15400       88.00820
H        104.82406      121.61986       91.21070
H        107.31271      123.36571       91.08155
H        107.72009      121.12258       90.22741
H        107.77762      122.34899       88.92106
N        104.49176      124.39907       90.17057
C        103.77347      125.46846       89.49472
C        103.27601      125.07587       88.11812
O        102.66940      125.91051       87.46339
H        104.03707      123.98513       90.98286
H        104.42130      126.37023       89.44083
H        102.87451      125.73195       90.09484
N        103.46530      123.81725       87.62718
C        103.02032      123.33606       86.32986
C        101.50970      123.32846       86.26265
O        100.93000      123.86602       85.33235
C        103.73776      124.08863       85.18060
C        105.27472      123.94779       85.27720
C        105.79205      122.53717       85.07486
N        107.10708      122.27250       85.24416
O        105.03868      121.62996       84.75298
H        103.94580      123.12560       88.20407
H        103.29868      122.26553       86.25915
H        103.47990      125.16763       85.22716
H        103.39794      123.70696       84.19401
H        105.60406      124.31380       86.27271
H        105.75105      124.59512       84.51080
H        107.76286      123.01690       85.52139
H        107.46762      121.31566       85.11118
N        100.83036      122.64005       87.22621
C         99.38200      122.44528       87.30174
C         99.08834      121.31116       88.29725
O         98.42506      120.35105       87.93342
C         98.54987      123.74273       87.65923
C         98.89657      124.39450       89.00704
C         98.58661      124.83684       86.58377
H        101.41339      122.15171       87.92386
H         99.01868      122.08911       86.31143
H         97.48427      123.42406       87.70902
H         99.96955      124.68236       89.04567
H         98.28033      125.30447       89.17149
H         98.63938      123.72655       89.84232
H         99.57147      125.34199       86.54715
H         98.31446      124.41973       85.59171
H         97.84318      125.62715       86.82806
N         99.55424      121.37488       89.57656
C         99.22028      120.42542       90.63720
C         99.91313      119.08296       90.48163
O        101.12744      119.04585       90.36807
C         99.61622      121.02961       91.99510
C         98.83434      122.29680       92.22866
N         99.45867      123.49359       92.31259
O         97.61617      122.24200       92.31117
H        100.13197      122.18749       89.83347
H         98.11732      120.28431       90.66675
H        100.71103      121.23004       92.01055
H         99.38236      120.31694       92.81429
H        100.47763      123.56378       92.19948
H         98.91784      124.35889       92.45695
N         99.17425      117.93075       90.53441
C         99.75670      116.57855       90.49600
C         98.64377      115.53829       90.26963
O         97.47735      115.85256       90.43645
C        100.60322      116.33610       91.78912
C        101.52504      115.12781       91.79267
C        101.02961      113.81970       91.90289
C        102.92098      115.31223       91.72424
C        101.89521      112.72194       91.91055
C        103.78829      114.21507       91.73513
C        103.27967      112.91662       91.82177
O        104.12801      111.86837       91.82311
H         98.15559      118.04300       90.60503
H        100.41195      116.54739       89.59861
H         99.94919      116.31558       92.68799
H        101.25731      117.21978       91.92166
H         99.97458      113.64334       91.98813
H        103.34475      116.30657       91.65626
H        101.48750      111.72173       91.98822
H        104.85772      114.37548       91.67481
H        103.81637      110.95341       91.87395
N         98.93787      114.30374       89.76161
C         97.91440      113.35617       89.31845
C         98.03338      112.01209       90.04668
O         98.45068      111.04484       89.42586
C         98.05776      113.18234       87.78934
C         97.77186      114.49337       87.04017
C         97.93027      114.30669       85.56047
O         99.12568      113.95484       85.04936
O         96.98242      114.48503       84.81249
H         99.92040      114.06199       89.57744
H         96.88963      113.74040       89.47402
H         97.32578      112.42051       87.43922
H         99.08422      112.82428       87.55062
H         98.47147      115.29179       87.36598
H         96.73297      114.82133       87.26869
N         97.66957      111.82584       91.35423
C         97.09972      112.85512       92.21945
C         95.70434      113.26327       91.76732
O         95.15513      112.64385       90.86467
C         97.01795      112.38709       93.69527
C         98.34309      111.82738       94.23697
C         98.35117      111.83469       95.73452
O         97.47165      111.29869       96.39013
O         99.33853      112.51911       96.33067
H         97.81426      110.88244       91.74470
H         97.76847      113.73618       92.19423
H         96.23400      111.60893       93.83292
H         96.73113      113.27488       94.30068
H         99.18075      112.47890       93.90890
H         98.52378      110.80241       93.85462
N         95.06352      114.30171       92.37470
C         93.72964      114.73989       92.01606
H         93.06557      114.65563       92.90173
H         93.76631      115.80116       91.69365
H         93.29082      114.13822       91.19253
H         95.53877      114.81797       93.12990
Ca        99.32590      113.76136       98.18525
O        102.05419      112.57611       98.02923
H        102.37984      113.34074       98.56725
H        101.85194      112.96831       97.14282
O         95.91513      113.49473       97.98744
H         95.79152      113.87738       97.08256
H         95.14769      113.83817       98.51052
O        100.30293      113.95596      101.09435
H        101.06427      113.32732      101.02063
H        100.69870      114.78696      101.45876
O         97.19817      113.09919      100.87413
H         96.31315      112.70256      101.07355
H         97.79593      112.73526      101.57447
O         99.27574      110.91440       99.28325
H         99.44515      110.39823      100.11070
H         98.30217      110.82285       99.12748

Ca 1.0



