%chk=apoCaM-CA-Ng.loop2.water4.frame1387.chk
%nprocshared=20
%mem=10GB
%nosave
#b3lyp/svp scf=(tight,noincore,xqc) Test 
#IOP(5/87=12) Density=Current Pop=(MK,readradii) iop(6/33=2) iop(6/42=6)

apoCaM-CA-Ng.loop2.water4.frame1387 

   -2  1 
C         12.72548       70.96990       43.69836
C         13.66412       69.84643       44.07263
O         14.86081       70.09214       44.03397
H         11.65140       70.75616       43.81996
H         12.93984       71.83670       44.36057
H         12.90579       71.27827       42.64838
N         13.26678       68.60751       44.49581
C         11.89281       68.12257       44.57813
C         11.75111       66.69879       44.05055
O         10.68329       66.12934       44.23543
C         11.41389       68.21206       46.04830
C         12.06137       67.24738       47.01629
O         12.75407       67.71251       48.07276
O         11.88572       66.04571       46.89886
H         14.00528       67.97621       44.84161
H         11.20292       68.75153       43.98919
H         10.31945       68.01951       46.08139
H         11.57285       69.25570       46.39768
N         12.77769       66.03626       43.43329
C         12.75391       64.59544       43.22019
C         13.98670       63.98805       43.87625
O         14.66293       63.16966       43.26725
C         12.64767       64.26491       41.72806
H         13.64297       66.53382       43.17732
H         11.86687       64.14861       43.71978
H         11.71687       64.70649       41.31252
H         13.51900       64.66841       41.17081
H         12.59957       63.16352       41.58302
N         14.35640       64.39338       45.12749
C         15.50325       63.85850       45.85457
C         15.07679       63.35736       47.22579
O         13.94309       63.57989       47.62762
C         16.62257       64.91763       45.94667
C         16.18040       66.21106       46.57828
O         16.24822       67.25312       45.94605
O         15.72620       66.23340       47.84417
H         13.81210       65.13893       45.58229
H         15.92252       62.98621       45.30734
H         16.97996       65.13173       44.91474
H         17.48199       64.51042       46.52051
N         15.93183       62.60864       47.97797
C         15.54188       62.01048       49.24492
C         15.54299       62.98542       50.39949
O         15.92402       64.13657       50.24040
H         16.85377       62.36258       47.58740
H         16.27150       61.21586       49.50966
H         14.54622       61.52735       49.13275
N         15.13075       62.54783       51.62272
C         15.15824       63.34466       52.84112
C         15.92466       62.57418       53.91133
O         15.33740       62.14303       54.89560
C         13.71616       63.67225       53.28564
C         12.96630       64.54577       52.26293
N         11.65543       64.90684       52.79367
O         13.69495       65.71449       52.01652
H         14.76708       61.58444       51.69798
H         15.67684       64.31675       52.68931
H         13.76385       64.23453       54.24561
H         13.14590       62.73305       53.45905
H         11.09625       64.03896       52.95659
H         11.15294       65.48165       52.08081
N         17.26845       62.38102       53.78450
C         18.06264       61.64238       54.75971
C         17.81502       60.14505       54.68349
O         17.01895       59.72242       53.85590
H         17.75755       62.80977       52.98403
H         17.86323       62.04061       55.77862
H         19.13848       61.79712       54.52732
N         18.48177       59.24161       55.46537
C         19.43494       59.57603       56.52525
C         20.86567       59.15441       56.18424
O         21.75400       59.46879       56.96546
C         18.97583       58.93045       57.85598
C         17.61815       59.46880       58.31532
O         18.88489       57.53343       57.70582
H         18.29108       58.24039       55.30028
H         19.48166       60.67405       56.67234
H         19.70938       59.19521       58.65579
H         19.55731       57.11715       58.30495
H         17.67376       60.56733       58.46932
H         16.82695       59.24788       57.56781
H         17.33267       58.99314       59.27811
N         21.17824       58.48850       55.03392
C         22.54373       58.18234       54.59941
C         22.76718       58.91770       53.28185
O         21.89173       58.84384       52.42957
C         22.75005       56.64354       54.48222
C         22.65667       56.02316       55.90516
C         24.10951       56.31427       53.82790
C         22.90955       54.51643       55.96878
H         20.41941       58.21006       54.39504
H         23.27200       58.54907       55.34633
H         21.95830       56.21565       53.82787
H         21.64414       56.21836       56.31931
H         23.40088       56.51214       56.57325
H         24.18849       56.77378       52.82045
H         24.95119       56.66687       54.45733
H         24.21861       55.22305       53.66855
H         23.95019       54.27323       55.66903
H         22.78776       54.17096       57.01735
H         22.19399       53.97108       55.32083
N         23.85671       59.70078       53.02043
C         25.09365       59.76343       53.79294
C         26.28248       59.61552       52.84181
O         26.43063       60.43339       51.94649
C         25.16489       61.05367       54.63536
C         25.04866       62.33037       53.84906
O         23.91937       62.61273       53.17187
O         25.96118       63.14045       53.86006
H         23.83059       60.26295       52.15951
H         25.15078       58.93952       54.52420
H         26.12560       61.04558       55.19781
H         24.34152       61.03792       55.38280
N         27.18081       58.59766       52.99077
C         28.36580       58.43936       52.14555
C         28.05480       57.62494       50.88672
O         27.52546       56.53241       51.03493
C         29.46113       57.65289       52.91294
C         30.70038       57.51210       52.05275
C         31.02178       56.27459       51.46767
C         31.50934       58.62886       51.78145
C         32.11870       56.16487       50.60781
C         32.60992       58.51276       50.92682
C         32.91051       57.28326       50.33549
H         27.05947       57.95330       53.78668
H         28.79731       59.43780       51.92746
H         29.05591       56.64755       53.16640
H         29.72753       58.15035       53.87044
H         30.40574       55.40301       51.64999
H         31.27701       59.59233       52.21798
H         32.34768       55.21477       50.14284
H         33.22192       59.37934       50.71272
H         33.75409       57.19815       49.66282
N         28.47509       57.99634       49.63337
C         29.12502       59.24473       49.28229
C         28.10423       60.36167       49.24507
O         28.37550       61.41998       49.78955
C         29.79679       58.92550       47.93912
C         28.85678       57.93639       47.29193
C         28.40827       57.09458       48.49133
H         29.95242       59.53342       49.95653
H         30.08899       59.80515       47.32648
H         30.72415       58.34955       48.16833
H         28.00695       58.51151       46.88225
H         29.28154       57.35048       46.44926
H         27.39152       56.68546       48.30976
H         29.12488       56.26418       48.67827
N         26.87848       60.16921       48.68105
C         25.83700       61.18297       48.65114
C         26.28045       62.31714       47.73786
O         26.47655       62.06109       46.55805
C         24.51308       60.56556       48.12972
C         24.00056       59.42460       49.03364
C         22.76500       58.78436       48.47410
O         22.76792       57.47186       48.16893
O         21.75007       59.44072       48.30678
H         26.65732       59.24679       48.29536
H         25.65117       61.53566       49.68576
H         24.67576       60.16577       47.10412
H         23.73376       61.35752       48.08060
H         23.77300       59.82487       50.03553
H         24.76594       58.62993       49.14957
N         26.48936       63.59351       48.17072
C         26.32569       64.02758       49.54121
H         26.57479       65.10707       49.62298
H         25.27683       63.87931       49.87021
H         27.01316       63.47176       50.20982
H         26.79681       64.29880       47.48282
Ca        13.36456       66.41096       49.84477
O         12.49114       68.65268       51.33143
H         11.94447       69.00515       50.58477
H         12.64446       69.43024       51.92312
O         11.69796       63.64645       49.42588
H         11.03686       63.61737       50.16154
H         11.83798       62.69771       49.18088
O         10.16013       66.42571       49.66752
H          9.81607       67.29899       49.35329
H          9.93289       65.79343       48.94036
O         15.97334       67.72183       50.45437
H         15.48297       68.02251       51.26019
H         16.51039       66.94970       50.76368

Ca 1.0



