%chk=apoCaM-CA-Ng.loop1.water4.frame344.chk
%nprocshared=20
%mem=10GB
%nosave
#b3lyp/svp scf=(tight,noincore,xqc) Test 
#IOP(5/87=12) Density=Current Pop=(MK,readradii) iop(6/33=2) iop(6/42=6)

apoCaM-CA-Ng.loop1.water4.frame344 

   0  1 
C         73.51486       93.46740       69.54944
C         72.51233       94.52178       69.18020
O         72.72906       95.23628       68.21178
H         74.48949       93.94216       69.78343
H         73.18343       92.88562       70.43628
H         73.64124       92.76367       68.70022
N         71.36963       94.66316       69.90503
C         70.32719       95.62535       69.57165
C         70.73359       97.07514       69.81354
O         69.88105       97.90866       69.59184
C         69.03552       95.34163       70.38640
C         68.40431       94.01661       70.04132
O         69.05516       92.86099       70.27055
O         67.28076       93.98412       69.56364
H         71.21482       94.02132       70.69695
H         70.05562       95.51369       68.50040
H         68.28011       96.12708       70.15579
H         69.24714       95.38920       71.47633
N         71.95084       97.49442       70.26901
C         72.17811       98.89880       70.63409
C         73.19108       99.59209       69.75354
O         74.07642       98.90150       69.26748
C         72.67554       98.95364       72.09458
C         71.62526       98.43595       73.09004
C         72.10405       98.50099       74.55023
C         72.33976       99.93856       75.05126
N         72.73272       99.94208       76.45935
H         72.71177       96.81886       70.42452
H         71.24602       99.46055       70.51467
H         72.94151       99.99271       72.34599
H         73.60766       98.35321       72.19169
H         71.39816       97.37453       72.85067
H         70.68533       99.01962       72.98903
H         73.03501       97.90351       74.66263
H         71.31612       98.03782       75.18303
H         71.40421      100.52904       74.93058
H         73.14306      100.43258       74.46622
H         71.98052       99.51274       77.04527
H         73.62522       99.41072       76.58306
H         72.88201      100.92955       76.76964
N         73.24791      100.95835       69.55924
C         72.31636      102.05563       69.92689
C         71.81923      102.05505       71.36972
O         70.88111      101.33829       71.66744
C         71.12237      102.16371       68.95485
C         71.55982      102.30634       67.52770
O         72.84687      102.56199       67.22197
O         70.75880      102.09593       66.63089
H         74.07615      101.27929       69.03236
H         72.88047      102.99688       69.75876
H         70.48107      103.03773       69.20695
H         70.50529      101.24614       69.04292
N         72.33027      102.84847       72.34546
C         73.39731      103.80269       72.12934
C         73.87572      104.44237       73.42036
O         73.43150      104.06088       74.49411
H         71.91926      102.74609       73.28577
H         73.02566      104.58970       71.43859
H         74.26671      103.28086       71.67324
N         74.81764      105.42386       73.41915
C         75.35565      106.01666       72.20023
C         74.44242      107.11980       71.68483
O         73.54115      107.54809       72.39353
C         76.79021      106.53843       72.44627
C         76.86891      107.57735       73.53738
O         76.27955      108.64067       73.42831
O         77.59604      107.33307       74.64472
H         75.12017      105.79559       74.33266
H         75.44175      105.23460       71.41608
H         77.20803      106.96675       71.51060
H         77.42747      105.67422       72.73558
N         74.65609      107.64736       70.44715
C         73.96608      108.81534       69.92168
C         72.46713      108.70959       69.70646
O         71.91336      109.71210       69.27850
H         75.41276      107.25030       69.86960
H         74.41742      109.07413       68.93959
H         74.15309      109.66538       70.61327
N         71.72830      107.59467       69.98628
C         70.26921      107.57051       69.84521
C         69.63850      107.50529       71.22874
O         70.35683      107.34135       72.20544
C         69.83652      106.38769       68.93624
C         70.46443      106.48882       67.54293
O         68.44064      106.37008       68.78651
H         72.18816      106.75052       70.35397
H         69.90483      108.51630       69.38917
H         70.17569      105.44363       69.42311
H         68.18031      105.43764       68.56401
H         71.57189      106.46982       67.60370
H         70.13689      105.62774       66.92148
H         70.14070      107.42789       67.04455
N         68.28995      107.66018       71.38459
C         67.62178      107.60775       72.68529
C         66.78270      106.33798       72.80963
O         66.30352      106.05063       73.89883
C         66.81547      108.92950       72.90853
C         66.39145      109.19005       74.37550
C         65.56335      108.99461       72.00791
C         67.57722      109.35648       75.32964
H         67.71623      107.82012       70.54689
H         68.40242      107.52840       73.46392
H         67.48033      109.77653       72.62515
H         65.71463      108.39441       74.74937
H         65.83104      110.15152       74.40366
H         65.81838      108.89315       70.93505
H         64.84236      108.19285       72.27734
H         65.05079      109.97250       72.13115
H         68.25626      110.15706       74.96383
H         67.20465      109.64670       76.33414
H         68.14759      108.41436       75.44444
N         66.58203      105.51956       71.73557
C         65.88514      104.24368       71.77498
C         66.79933      103.15334       71.22763
O         67.91783      103.45460       70.82441
C         64.55616      104.34788       70.97671
C         64.75403      104.68833       69.49307
O         63.73818      105.33482       71.55041
H         66.94812      105.79279       70.81674
H         65.62413      103.97314       72.82208
H         64.02158      103.37159       71.01124
H         63.40741      104.97042       72.41293
H         63.76666      104.72062       68.98543
H         65.22745      105.68407       69.36639
H         65.37841      103.92051       68.99050
N         66.38413      101.85794       71.17208
C         67.19897      100.77955       70.61747
C         66.53096      100.21864       69.35878
O         65.51871      100.76117       68.93265
C         67.52343       99.72926       71.72894
C         66.31210       98.91767       72.18230
O         68.07189      100.34367       72.87225
H         65.44333      101.62349       71.52391
H         68.18644      101.16725       70.28233
H         68.26878       99.00658       71.33579
H         68.66380      101.08402       72.58784
H         66.64153       98.17281       72.94024
H         65.54910       99.57171       72.65068
H         65.86555       98.36687       71.33003
N         67.04340       99.13300       68.71057
C         66.47334       98.54638       67.49900
C         67.52055       98.30966       66.38507
O         67.13043       97.92728       65.29255
C         65.79591       97.22703       67.92198
C         64.90300       96.59853       66.84577
C         64.21735       95.34209       67.39008
C         63.25715       94.75083       66.35285
N         62.61284       93.54492       66.86974
H         67.81715       98.64562       69.15420
H         65.69034       99.22801       67.09986
H         65.13911       97.45493       68.79212
H         66.57066       96.50263       68.25752
H         65.49437       96.31226       65.95382
H         64.12958       97.34066       66.54839
H         63.64067       95.59993       68.30572
H         64.99172       94.58898       67.65616
H         63.81510       94.50060       65.42325
H         62.47759       95.50541       66.10364
H         63.33263       92.81203       67.06668
H         62.08477       93.76540       67.74540
H         61.94420       93.18116       66.15329
N         68.86152       98.49310       66.58424
C         69.89673       98.22530       65.57790
C         69.88906       96.77047       65.13405
O         69.99441       95.88802       65.97354
C         71.28274       98.57995       66.17315
C         72.51288       98.41730       65.25548
C         72.44053       99.13201       63.92416
O         71.74365       98.68160       63.03289
O         73.20525      100.21035       63.66051
H         69.17848       98.84138       67.49361
H         69.72172       98.89064       64.70614
H         71.46079       97.95692       67.08000
H         71.25025       99.63395       66.50312
H         72.70920       97.34146       65.05382
H         73.38370       98.80325       65.82980
N         69.81977       96.45776       63.80791
C         69.88703       95.10410       63.29399
H         70.79783       94.99844       62.66539
H         69.93258       94.34329       64.10066
H         68.99645       94.90268       62.66382
H         69.75352       97.21462       63.11296
Ca        73.47556      101.75258       65.25343
O         74.16837      103.06953       62.39946
H         73.35867      103.32150       61.88841
H         74.55782      102.31494       61.89028
O         72.68497      105.02701       64.79239
H         71.76768      105.25428       64.49680
H         73.12991      105.90293       64.91630
O         70.94289      102.29611       63.39842
H         70.80171      101.48077       62.85489
H         70.68903      103.04086       62.79784
O         76.21692      100.63265       63.85964
H         75.85082       99.81012       64.27211
H         76.22299      100.44111       62.88814

Ca 1.0



