%chk=apoCaM-CA-Ng.loop1.water2.frame895.chk
%nprocshared=20
%mem=10GB
%nosave
#b3lyp/svp scf=(tight,noincore,xqc) Test 
#IOP(5/87=12) Density=Current Pop=(MK,readradii) iop(6/33=2) iop(6/42=6)

apoCaM-CA-Ng.loop1.water2.frame895 

   0  1 
C         22.52780        0.25057       54.12020
C         21.26304        1.04269       53.98301
O         20.21142        0.44081       53.81445
H         23.40543        0.91144       54.27725
H         22.43978       -0.43686       54.98757
H         22.69139       -0.34548       53.19802
N         21.28119        2.40506       54.05694
C         20.07010        3.21081       53.94918
C         19.34251        3.10733       52.56810
O         19.93839        2.18277       51.69894
C         20.31589        4.68622       54.36604
C         21.39489        5.53021       53.69237
O         22.20234        5.10571       52.69189
O         21.57556        6.65613       54.12773
H         22.17946        2.87700       54.24060
H         19.37101        2.81790       54.72419
H         20.59675        4.65854       55.44238
H         19.34889        5.23134       54.29542
N         17.93331        2.76725       52.78378
C         17.11455        2.67954       51.56358
C         16.90029        4.05188       50.94916
O         16.45158        4.96068       51.63459
C         15.78556        1.99315       51.92817
C         16.05760        0.53039       52.34545
C         14.81192       -0.24159       52.79446
C         14.27629        0.24639       54.14960
N         13.14779       -0.57335       54.58793
H         17.50013        3.45266       53.44784
H         17.60832        2.02460       50.81147
H         15.10854        1.98293       51.04548
H         15.29385        2.56591       52.74226
H         16.80947        0.48206       53.16334
H         16.48530        0.00476       51.46296
H         15.10811       -1.30712       52.91422
H         14.02482       -0.18609       52.01168
H         13.95187        1.30590       54.08249
H         15.08833        0.17546       54.90845
H         12.36045       -0.49336       53.90459
H         13.44085       -1.57407       54.67413
H         12.82386       -0.23703       55.52341
N         17.19773        4.25812       49.63462
C         17.09423        5.56508       48.98383
C         16.95927        5.42505       47.46325
O         17.12832        4.32778       46.94910
C         18.30439        6.43028       49.42195
C         19.61753        5.74908       49.15848
O         19.95506        5.46377       48.02098
O         20.43500        5.46174       50.18705
H         17.51236        3.44546       49.08430
H         16.13544        6.03266       49.30018
H         18.22263        6.61842       50.51372
H         18.34165        7.41395       48.92594
N         16.55108        6.44665       46.65296
C         16.24603        7.81013       47.06014
C         14.76519        8.06116       47.07127
O         14.00164        7.11657       47.17095
H         16.39294        6.22745       45.65599
H         16.75921        8.49561       46.35101
H         16.57582        8.06778       48.07497
N         14.29437        9.33809       47.06510
C         12.87716        9.68710       47.14697
C         12.10820        9.13198       45.95290
O         12.48902        9.39712       44.82062
C         12.73625       11.22547       47.21988
C         11.33124       11.71272       47.47312
O         10.30440       10.85488       47.62975
O         11.12266       12.91175       47.56111
H         14.98946       10.10032       47.01745
H         12.46826        9.27373       48.09587
H         13.11617       11.67803       46.27783
H         13.36333       11.59625       48.06069
N         10.98615        8.37492       46.14214
C         10.19180        7.82718       45.04909
C         10.83333        6.62921       44.37163
O         10.24380        6.10596       43.43792
H         10.64578        8.22040       47.10297
H          9.96894        8.63112       44.31388
H          9.22363        7.46681       45.45848
N         12.01691        6.11958       44.80933
C         12.69077        4.95307       44.25722
C         14.01762        5.40224       43.65862
O         14.32614        6.58644       43.72299
C         12.87977        3.90278       45.38343
C         11.54126        3.53408       46.03625
O         13.46234        2.73539       44.86671
H         12.48030        6.57046       45.59375
H         12.08235        4.50189       43.44335
H         13.54566        4.34806       46.16112
H         13.89920        2.26768       45.62566
H         11.70800        2.78461       46.83831
H         11.06754        4.42511       46.50002
H         10.84691        3.10606       45.28238
N         14.83737        4.52651       43.00823
C         16.01057        4.98331       42.27376
C         15.52069        5.55669       40.94924
O         15.76016        6.72818       40.69204
C         17.13347        3.89589       42.22573
C         18.49836        4.45338       41.73712
C         16.76622        2.66358       41.38301
C         19.11580        5.50388       42.67062
H         14.53759        3.54958       42.90544
H         16.45653        5.81043       42.86069
H         17.29084        3.53763       43.26904
H         18.40450        4.87011       40.71158
H         19.22747        3.61346       41.70379
H         15.83666        2.18207       41.74428
H         16.65527        2.93331       40.31292
H         17.57298        1.90271       41.46111
H         18.51501        6.43278       42.71808
H         19.23123        5.08819       43.69551
H         20.12221        5.78504       42.29520
N         14.69198        4.82532       40.14166
C         13.94496        5.39058       39.01931
C         14.25295        4.66781       37.72468
O         14.16506        3.44863       37.66848
C         12.42697        5.30348       39.29843
C         12.04300        6.10569       40.54373
O         11.72517        5.81995       38.19544
H         14.48339        3.84835       40.39626
H         14.18153        6.46995       38.89044
H         12.15562        4.23136       39.45045
H         10.80437        5.45155       38.24018
H         10.94970        6.03172       40.71885
H         12.56257        5.70676       41.43148
H         12.31500        7.17548       40.41767
N         14.55641        5.39889       36.61690
C         14.84226        4.83910       35.30398
C         16.25681        5.23584       34.94024
O         17.08119        4.35448       34.74316
C         13.77317        5.30711       34.28263
C         14.02067        4.73151       32.88450
O         13.72529        6.70907       34.21187
H         14.57476        6.42580       36.70767
H         14.79064        3.72650       35.33377
H         12.79217        4.92083       34.65088
H         12.80612        6.95556       33.92772
H         14.98705        5.09419       32.47520
H         14.03358        3.62167       32.92029
H         13.20743        5.05072       32.19817
N         16.62521        6.54999       34.91895
C         18.00303        6.98916       34.77109
C         18.45353        7.65501       36.06090
O         17.66920        7.77902       36.99313
C         18.14906        7.95707       33.57729
C         17.79175        7.29918       32.23546
C         18.28027        8.12904       31.03075
C         17.67908        9.53887       30.89429
N         16.24584        9.50386       30.60730
H         15.92094        7.27973       35.09853
H         18.68001        6.12314       34.60453
H         19.21169        8.26950       33.51922
H         17.52830        8.86588       33.73622
H         16.70096        7.09635       32.18120
H         18.32178        6.32397       32.17281
H         18.07806        7.56159       30.09703
H         19.38386        8.23715       31.11968
H         18.19526       10.04586       30.04849
H         17.87389       10.14230       31.80685
H         15.71985        9.08192       31.40461
H         15.90736       10.48263       30.46180
H         16.07117        8.95786       29.73216
N         19.73006        8.11046       36.17939
C         20.22415        8.78336       37.37082
C         20.18217        7.86716       38.59324
O         19.53828        8.25517       39.55781
C         21.62401        9.38193       37.10602
C         22.10201       10.28480       38.24923
C         23.39715       10.95045       37.88099
O         23.46366       12.16760       37.81261
O         24.48958       10.20868       37.61622
H         20.36800        8.00044       35.37766
H         19.55898        9.65804       37.55838
H         21.54659       10.01138       36.19079
H         22.37902        8.59420       36.91253
H         22.24567        9.69050       39.17617
H         21.33373       11.06603       38.44383
N         20.79881        6.64926       38.68010
C         21.55424        5.98751       37.63509
H         22.59030        5.80580       37.98824
H         21.07851        5.00970       37.40976
H         21.60306        6.55207       36.69247
H         20.70696        6.12690       39.56564
Ca        21.85295        3.28968       51.45027
O         22.12929        3.06079       47.34996
H         22.08628        3.75256       46.64290
H         23.08192        3.04080       47.61959
O         21.87712        0.68068       49.67887
H         22.16186       -0.07180       50.25581
H         22.71790        1.15476       49.45831

Ca 1.0



