%chk=apoCaM-CA-Ng.loop2.water5.frame76.chk
%nprocshared=20
%mem=10GB
%nosave
#b3lyp/svp scf=(tight,noincore,xqc) Test 
#IOP(5/87=12) Density=Current Pop=(MK,readradii) iop(6/33=2) iop(6/42=6)

apoCaM-CA-Ng.loop2.water5.frame76 

   -2  1 
C         43.51698       52.48212       71.38597
C         43.66643       51.16787       72.09426
O         44.52885       50.39407       71.70408
H         42.69280       53.08733       71.81766
H         44.46298       53.05693       71.45774
H         43.28704       52.29461       70.31468
N         42.83464       50.83247       73.12439
C         42.87142       49.52958       73.78919
C         41.68119       48.67283       73.38719
O         41.80962       47.45704       73.42054
C         43.05737       49.65998       75.31329
C         41.94165       50.35432       76.05652
O         42.05128       50.52436       77.38737
O         40.94304       50.76163       75.48505
H         42.11692       51.51534       73.40598
H         43.75754       48.96914       73.41653
H         43.99695       50.22477       75.49590
H         43.17698       48.64382       75.74691
N         40.55383       49.23292       72.85440
C         39.54734       48.49792       72.10528
C         40.22111       47.91136       70.87750
O         40.06225       46.73595       70.57857
C         38.78783       47.47679       72.96611
H         40.44050       50.25509       72.85387
H         38.80071       49.23743       71.73722
H         39.45710       46.68268       73.35370
H         38.30828       47.99130       73.82573
H         37.99011       46.99328       72.36215
N         41.05452       48.71502       70.14812
C         41.79339       48.31200       68.96172
C         42.68003       47.10112       69.26285
O         42.53599       46.06438       68.62966
C         40.79251       48.11363       67.80215
C         41.45282       47.96547       66.46288
O         40.76600       47.82719       65.46440
O         42.79129       48.01687       66.34457
H         41.19791       49.68732       70.46290
H         42.45387       49.16364       68.67963
H         40.14527       49.01752       67.74214
H         40.14232       47.23582       68.00086
N         43.58021       47.15728       70.28663
C         44.30319       45.99311       70.77956
C         45.54247       45.57229       70.00768
O         46.12207       44.57464       70.41520
H         43.62708       48.02035       70.84740
H         43.59560       45.13699       70.85283
H         44.64758       46.20986       71.81338
N         46.03991       46.24016       68.92353
C         47.24364       45.76648       68.23111
C         48.47176       45.85961       69.13628
O         48.73411       46.92022       69.68657
C         47.51728       46.54614       66.93130
C         48.51051       45.79619       66.06428
N         49.71163       46.32241       65.73492
O         48.21454       44.68476       65.65043
H         45.54549       47.07250       68.56896
H         47.05021       44.71326       67.92573
H         47.87528       47.55867       67.18154
H         46.58457       46.64793       66.34164
H         49.99413       47.25205       66.05995
H         50.37097       45.78820       65.14929
N         49.28342       44.78113       69.30407
C         50.45691       44.75389       70.16653
C         51.53826       45.75062       69.78563
O         51.93003       45.79158       68.62789
H         49.05391       43.91260       68.79687
H         50.91052       43.74208       70.08074
H         50.15161       44.89018       71.22529
N         52.14691       46.50525       70.75351
C         53.34345       47.31561       70.49490
C         53.03701       48.66983       69.86773
O         53.97873       49.33353       69.45155
C         54.21575       47.48981       71.77081
C         53.55700       48.32574       72.88128
O         54.62860       46.23835       72.26392
H         51.84127       46.36358       71.72612
H         53.97932       46.74748       69.77815
H         55.13985       48.03585       71.47745
H         53.85584       45.81032       72.71527
H         54.25892       48.42664       73.73584
H         53.32564       49.34304       72.51047
H         52.62255       47.85682       73.25015
N         51.76659       49.15200       69.76596
C         51.42757       50.40659       69.09003
C         50.57225       50.09410       67.88818
O         50.21314       48.93650       67.71678
C         50.68879       51.40010       70.03556
C         49.38211       50.78633       70.61271
C         51.63666       51.88299       71.14316
C         48.49886       51.80000       71.33787
H         50.99204       48.58344       70.13779
H         52.34429       50.90270       68.69963
H         50.41657       52.29293       69.43062
H         49.61962       49.95375       71.30880
H         48.76726       50.37820       69.78232
H         51.93381       51.04217       71.79942
H         52.54959       52.32921       70.69333
H         51.16203       52.66955       71.76281
H         47.57340       51.29338       71.68559
H         49.00793       52.22584       72.22456
H         48.21177       52.61826       70.64352
N         50.21445       51.05863       66.99098
C         49.38839       50.73052       65.83738
C         49.49789       51.78941       64.74730
O         48.49395       52.22866       64.20714
C         47.94657       50.42697       66.32756
C         47.01944       49.81035       65.31970
O         47.32120       49.72157       64.14048
O         45.82304       49.35364       65.73834
H         50.57863       52.01806       67.10691
H         49.82241       49.81469       65.37588
H         47.48287       51.34949       66.74029
H         47.99904       49.71411       67.16557
N         50.73792       52.19634       64.34250
C         50.99716       53.00669       63.15540
C         50.17134       54.29207       63.12191
O         50.32920       55.10142       64.02290
C         52.49903       53.37195       63.09099
C         52.85722       54.04244       61.78949
C         52.85464       53.30020       60.59715
C         53.19870       55.40494       61.75200
C         53.18907       53.91047       59.38604
C         53.52199       56.01474       60.53572
C         53.51947       55.26757       59.35434
H         51.55221       51.84197       64.86764
H         50.75423       52.35938       62.29214
H         53.13838       52.46906       63.20088
H         52.72769       54.03917       63.95252
H         52.60234       52.24701       60.60912
H         53.20231       55.99741       62.65860
H         53.19181       53.33013       58.47270
H         53.77485       57.06669       60.50874
H         53.77431       55.73938       58.41452
N         49.29538       54.57176       62.10216
C         48.48001       55.77863       62.00807
C         47.64642       56.05708       63.24746
O         47.67932       57.16480       63.76329
C         47.54496       55.48475       60.81917
C         48.42611       54.64738       59.93027
C         49.09611       53.72325       60.94050
H         49.14670       56.63959       61.77697
H         46.71282       54.81202       61.12759
H         47.09957       56.38521       60.34620
H         47.91310       54.12229       59.09624
H         49.20145       55.32503       59.50477
H         48.45522       52.86239       61.23357
H         50.04132       53.37396       60.47603
N         46.85033       55.07766       63.75539
C         45.91499       55.24534       64.86938
C         46.59052       55.53131       66.21059
O         45.87016       55.73968       67.17785
C         45.05989       53.96463       64.97796
C         44.15745       53.77351       63.72934
C         43.63060       52.37301       63.61888
O         42.95796       52.03824       62.65791
O         44.02543       51.46070       64.51581
H         46.88605       54.16239       63.28196
H         45.23664       56.09834       64.64701
H         44.40393       53.97526       65.87617
H         45.77595       53.11758       65.08962
H         44.73504       53.93953       62.79804
H         43.32752       54.51095       63.75674
N         47.94307       55.57294       66.36462
C         48.56872       55.88348       67.63200
H         49.67433       55.88337       67.51828
H         48.25209       56.89243       67.97369
H         48.28803       55.12562       68.39300
H         48.56005       55.38665       65.57161
Ca        44.14177       49.25002       64.26525
O         46.32671       46.76284       63.42092
H         47.24044       47.13776       63.48206
H         46.46749       45.78914       63.31111
O         43.04881       46.57353       62.60299
H         43.83966       46.21179       62.12991
H         42.44255       46.86933       61.87837
O         44.76157       49.15379       61.25558
H         45.34796       49.88214       61.58174
H         45.38287       48.41621       61.03115
O         41.39098       49.45272       62.70790
H         41.37052       49.90577       63.58819
H         40.77269       48.68645       62.80909
O         44.28542       45.64180       65.48179
H         43.87431       45.69156       66.37984
H         44.96359       44.92635       65.56648

Ca 1.0



