%chk=apoCaM-CA-Ng.loop4.water4.frame951.chk
%nprocshared=20
%mem=10GB
%nosave
#b3lyp/svp scf=(tight,noincore,xqc) Test 
#IOP(5/87=12) Density=Current Pop=(MK,readradii) iop(6/33=2) iop(6/42=6)

apoCaM-CA-Ng.loop4.water4.frame951 

   -3  1 
C         74.25737      108.48961       64.81922
C         74.26507      109.93952       65.20489
O         74.48890      110.77329       64.33950
H         73.47971      108.31676       64.04569
H         75.24892      108.20831       64.40737
H         74.03838      107.83828       65.69116
N         74.01281      110.31696       66.49479
C         74.00736      111.70191       66.97202
C         72.88752      112.54546       66.35995
O         72.83658      113.73751       66.63012
C         75.38759      112.35540       66.76581
C         76.48777      111.47609       67.29259
O         77.44002      111.07334       66.43875
O         76.52583      111.13737       68.46426
H         73.83209      109.58182       67.19517
H         73.82794      111.68588       68.07036
H         75.42153      113.33974       67.28044
H         75.56865      112.54089       65.68519
N         71.93155      111.98746       65.56055
C         70.81513      112.72372       64.97046
C         69.96074      113.24718       66.12499
O         69.52693      112.40470       66.90001
C         69.97141      111.74653       64.05934
C         70.80392      110.98066       62.98299
C         68.77260      112.43452       63.38488
C         71.59328      111.86675       62.02018
H         71.96866      110.97728       65.40260
H         71.22324      113.54551       64.34965
H         69.54205      110.96148       64.72187
H         70.12126      110.32888       62.39508
H         71.52923      110.29210       63.45880
H         69.09542      113.17109       62.62626
H         68.15233      111.67843       62.85818
H         68.12568      112.93251       64.13593
H         70.92783      112.53652       61.44110
H         72.34017      112.46645       62.57727
H         72.14307      111.22126       61.30216
N         69.67846      114.56112       66.39720
C         70.02012      115.76166       65.62521
C         69.56659      116.98784       66.41685
O         68.39100      117.06144       66.75157
C         69.29189      115.75619       64.26663
C         69.44272      117.04119       63.50458
O         68.34462      117.74032       63.16151
O         70.54724      117.45223       63.18887
H         69.14309      114.71226       67.26821
H         71.11912      115.81798       65.46254
H         68.20702      115.57269       64.43293
H         69.69692      114.95969       63.63373
N         70.43687      117.98737       66.74873
C         70.04279      119.12339       67.57208
C         70.16064      120.43214       66.83574
O         70.86908      121.30758       67.30981
H         71.41664      117.93425       66.42984
H         70.68304      119.14042       68.48120
H         68.99077      119.03641       67.91331
N         69.45574      120.64845       65.68743
C         69.46249      121.91615       64.95507
C         68.53965      121.87669       63.74632
O         67.72538      122.78077       63.60980
C         70.88547      122.39853       64.56104
C         71.79239      121.36613       63.94272
O         71.53224      120.84640       62.87253
O         72.94042      121.04137       64.56706
H         68.87225      119.87526       65.33192
H         69.06115      122.71659       65.61860
H         71.39247      122.76169       65.47775
H         70.80075      123.28911       63.89864
N         68.60085      120.87790       62.82119
C         67.80910      120.90458       61.60341
C         68.37295      121.87886       60.58626
O         67.76036      122.04075       59.54125
H         69.22653      120.07753       62.97592
H         66.74906      121.13359       61.84907
H         67.83514      119.90307       61.12129
N         69.57847      122.49866       60.78582
C         70.24854      123.37365       59.83174
C         70.67384      122.64505       58.55684
O         71.24057      123.29749       57.68805
C         69.41990      124.65494       59.58833
C         69.15303      125.37190       60.93095
C         68.43863      126.69181       60.80499
N         68.15354      127.40098       61.92235
O         68.11876      127.13110       59.71011
H         70.08975      122.34675       61.65856
H         71.20302      123.71449       60.29444
H         68.45869      124.42414       59.08305
H         70.00463      125.33473       58.92984
H         70.12337      125.56296       61.43947
H         68.53777      124.71495       61.58255
H         68.41726      127.04207       62.85268
H         67.66978      128.30880       61.86192
N         70.49894      121.29669       58.38991
C         70.93624      120.55033       57.21442
C         71.93968      119.44284       57.55856
O         72.43420      118.81719       56.63588
C         69.70663      119.92675       56.48440
C         68.94266      118.91011       57.35934
C         68.74168      121.01549       55.99627
H         70.04156      120.75351       59.13058
H         71.45044      121.23292       56.50151
H         70.07504      119.38515       55.58508
H         68.11619      118.45074       56.77707
H         69.61331      118.09078       57.69287
H         68.49640      119.39099       58.25437
H         68.32081      121.58797       56.84949
H         69.26913      121.71796       55.31745
H         67.90063      120.55570       55.43397
N         72.23176      119.09792       58.85247
C         73.05377      117.94468       59.20866
C         74.13186      118.32817       60.20711
O         73.86972      119.11241       61.10385
C         72.13804      116.88277       59.85164
C         72.89996      115.64117       60.25696
N         72.95152      115.25515       61.55338
O         73.48303      114.98457       59.40731
H         71.78941      119.59960       59.63043
H         73.51482      117.47498       58.31238
H         71.35035      116.58821       59.12473
H         71.63516      117.32610       60.73702
H         72.47268      115.79477       62.28800
H         73.48476      114.41742       61.82721
N         75.33350      117.67815       60.17791
C         76.34981      117.81541       61.21960
C         77.55864      116.97227       60.85879
O         77.40474      115.77394       60.67303
C         75.80109      117.32757       62.58776
C         76.84330      117.40078       63.67996
C         77.41018      118.63434       64.04067
C         77.25900      116.23378       64.34487
C         78.38072      118.69869       65.04375
C         78.22869      116.30085       65.34935
C         78.79372      117.53101       65.70153
O         79.72910      117.57971       66.67107
H         75.50516      117.01688       59.40618
H         76.64913      118.88208       61.29630
H         75.44371      116.28016       62.47412
H         74.93383      117.93645       62.91090
H         77.10323      119.54623       63.54447
H         76.83619      115.27074       64.08617
H         78.81037      119.65667       65.30802
H         78.54130      115.39488       65.85356
H         80.14381      118.41075       66.94363
N         78.79858      117.53621       60.77435
C         79.99005      116.76916       60.44347
C         80.96831      116.82502       61.60723
O         81.54839      117.88208       61.81223
C         80.61745      117.35621       59.16072
C         81.89067      116.62495       58.71048
C         82.47016      117.28318       57.49025
O         81.82456      117.34386       56.45590
O         83.70698      117.81524       57.53427
H         78.90500      118.54418       60.96183
H         79.71451      115.72887       60.22503
H         80.86434      118.42757       59.33762
H         79.86308      117.30997       58.34455
H         81.66055      115.56196       58.48486
H         82.65046      116.65786       59.52072
N         81.22375      115.77650       62.44795
C         80.50088      114.50670       62.49895
C         80.64939      113.66090       61.25038
O         81.76475      113.35943       60.84984
C         80.96596      113.69155       63.72589
C         80.12742      112.41886       63.90110
C         80.39728      111.74736       65.20617
O         80.18586      112.35805       66.24275
O         80.65935      110.42916       65.27162
H         81.92996      115.94469       63.18333
H         79.42533      114.74073       62.66817
H         80.82360      114.33398       64.62412
H         82.04385      113.42781       63.65029
H         80.28937      111.70709       63.06382
H         79.05165      112.70390       63.91285
N         79.52882      113.18851       60.63012
C         79.54593      112.31699       59.47599
H         78.98774      112.79788       58.64618
H         80.57583      112.08950       59.13374
H         79.04154      111.36170       59.73725
H         78.60209      113.43212       61.01147
Ca        79.15620      109.64067       66.71622
O         81.23273      107.64665       63.85881
H         82.06794      108.14039       64.05659
H         80.87054      108.08780       63.04970
O         78.07946      107.95752       68.94779
H         78.51043      108.02558       69.83643
H         77.25689      108.50271       69.02749
O         81.50924      107.99922       67.85379
H         81.52545      108.89040       68.28543
H         81.91720      108.14762       66.96377
O         78.01987      108.79310       63.55557
H         78.20400      107.91446       63.13744
H         77.69092      109.35752       62.81151

Ca 1.0



