%chk=apoCaM-CA-Ng.loop1.water3.frame1473.chk
%nprocshared=20
%mem=10GB
%nosave
#b3lyp/svp scf=(tight,noincore,xqc) Test 
#IOP(5/87=12) Density=Current Pop=(MK,readradii) iop(6/33=2) iop(6/42=6)

apoCaM-CA-Ng.loop1.water3.frame1473 

   0  1 
C         50.25041       47.21475       73.13785
C         49.97055       47.94264       74.41926
O         50.65997       48.91065       74.70754
H         50.14898       47.91171       72.28123
H         51.28595       46.81254       73.16249
H         49.55060       46.36491       72.99319
N         48.99533       47.50144       75.26342
C         48.72626       48.09992       76.56481
C         49.23182       47.15583       77.63511
O         48.49894       46.71025       78.50635
C         47.25000       48.53258       76.68737
C         46.25736       47.45686       76.33569
O         45.48466       47.62787       75.40587
O         46.20386       46.30931       77.03604
H         48.46575       46.65490       75.00535
H         49.32740       49.02269       76.70586
H         47.09425       49.38777       75.99249
H         47.05453       48.90071       77.71803
N         50.55806       46.85897       77.61610
C         51.25747       46.03529       78.58898
C         51.09983       46.58152       80.00415
O         50.73296       45.79178       80.86257
C         52.75311       45.87980       78.19828
C         52.96724       45.23448       76.80442
C         52.45944       43.78539       76.71858
C         52.62872       43.21723       75.30368
N         52.18533       41.82407       75.24796
H         51.11570       47.28757       76.86399
H         50.81402       45.01929       78.58902
H         53.27433       45.25735       78.95800
H         53.24171       46.87693       78.19338
H         54.05662       45.23431       76.58236
H         52.47791       45.84156       76.01566
H         51.37951       43.73080       76.95951
H         53.02442       43.16378       77.44672
H         53.69481       43.27570       74.99325
H         52.02139       43.82342       74.59327
H         52.27416       41.47363       74.26705
H         52.78244       41.23564       75.87346
H         51.18482       41.74827       75.54432
N         51.28109       47.88693       80.37220
C         51.61584       49.00715       79.49494
C         50.41299       49.93171       79.34766
O         49.40639       49.73651       80.01665
C         52.88501       49.71589       79.99694
C         52.79375       50.08485       81.44632
O         51.97373       50.89869       81.83550
O         53.61300       49.48216       82.32850
H         51.09202       48.11434       81.36185
H         51.84727       48.66399       78.47731
H         53.11515       50.61477       79.38433
H         53.73309       49.00566       79.88504
N         50.41050       50.88723       78.37722
C         49.22677       51.65638       78.01963
C         48.88425       52.75462       78.99430
O         49.57891       52.93425       79.97768
H         51.24106       50.98027       77.77277
H         48.35988       50.97513       77.89392
H         49.41050       52.14271       77.03928
N         47.82848       53.57595       78.70920
C         47.42978       54.74917       79.50545
C         46.60032       55.72491       78.64627
O         46.19062       55.35014       77.55769
C         46.63783       54.29324       80.76285
C         47.52576       53.55685       81.72368
O         47.35557       52.36744       81.92886
O         48.54492       54.22083       82.31495
H         47.33759       53.37763       77.82599
H         48.34945       55.30143       79.77239
H         45.79288       53.65040       80.42717
H         46.19880       55.13648       81.32058
N         46.32864       57.02070       79.00248
C         46.76471       57.71133       80.20479
C         48.26289       57.85838       80.29538
O         48.93276       57.92008       79.27284
H         45.76890       57.58296       78.34092
H         46.35076       57.24020       81.11336
H         46.34870       58.74202       80.19590
N         48.85401       57.94656       81.51832
C         50.29733       58.06843       81.70532
C         50.99346       56.83872       81.15409
O         50.43929       55.76631       81.23871
C         50.65369       58.20456       83.21119
C         50.07007       59.47520       83.84277
O         52.05190       58.23525       83.35946
H         48.24408       57.90930       82.34930
H         50.66738       58.97772       81.18087
H         50.23824       57.31493       83.73971
H         52.25558       57.90857       84.27519
H         48.96325       59.49264       83.78600
H         50.35267       59.51840       84.91672
H         50.47200       60.37753       83.33553
N         52.23133       56.92514       80.60651
C         53.06029       55.79484       80.18637
C         53.53039       54.97357       81.44004
O         52.88788       53.71074       81.53959
C         52.45648       54.91210       79.04432
C         51.84722       55.77781       77.91421
C         53.54980       53.96683       78.49384
C         51.21629       54.95408       76.78722
H         52.64688       57.86538       80.51610
H         53.96001       56.28224       79.74606
H         51.63457       54.29728       79.46093
H         52.61537       56.45390       77.48322
H         51.03559       56.39893       78.34767
H         54.37009       54.55601       78.02924
H         53.98620       53.33719       79.29268
H         53.14328       53.26105       77.74376
H         50.71897       55.63009       76.06190
H         51.97998       54.37438       76.23011
H         50.45645       54.26131       77.19783
N         54.99332       54.77133       81.36453
C         55.56585       53.99967       82.48419
C         56.40724       54.86404       83.42329
O         57.50878       54.46534       83.77729
C         56.37913       52.80975       81.90126
C         57.57359       53.26839       81.04913
O         55.55449       52.02238       81.08794
H         55.50171       55.67734       81.23672
H         54.74853       53.57238       83.11086
H         56.77933       52.18205       82.73252
H         54.93816       51.55136       81.69922
H         58.30382       53.86165       81.63287
H         58.11361       52.38232       80.65670
H         57.23058       53.88612       80.19341
N         55.91607       56.02745       83.93594
C         56.61643       56.76717       84.98043
C         55.94276       56.34567       86.26115
O         54.92604       56.90893       86.64150
C         56.64018       58.28357       84.69418
C         57.41553       59.03448       85.78719
O         57.26649       58.49766       83.45451
H         54.96066       56.32155       83.67941
H         57.68140       56.44657       85.04244
H         55.59162       58.65703       84.64976
H         57.10156       59.44468       83.20449
H         57.42885       60.12256       85.56568
H         56.94015       58.88816       86.77913
H         58.46608       58.67324       85.83476
N         56.32310       55.14484       86.78552
C         55.56226       54.34690       87.73318
C         54.23208       53.91404       87.13967
O         53.82262       54.40674       86.09751
C         55.39959       54.99964       89.11696
C         56.74895       55.16086       89.83063
C         56.53564       55.56210       91.29884
C         57.84134       55.61262       92.10822
N         58.72346       56.69662       91.67723
H         57.16636       54.69113       86.40077
H         56.12956       53.39846       87.87547
H         54.77780       54.31761       89.73567
H         54.86897       55.97317       89.04887
H         57.36882       55.90476       89.28771
H         57.27614       54.18091       89.82302
H         55.89279       54.78773       91.77393
H         56.00760       56.53768       91.36425
H         58.37142       54.63642       92.03352
H         57.57880       55.77360       93.17732
H         58.23079       57.61427       91.77237
H         59.57007       56.70510       92.29078
H         59.03343       56.55650       90.69020
N         53.54800       52.89798       87.73189
C         52.32070       52.32560       87.19311
C         52.51249       51.87520       85.74759
O         51.73525       52.32455       84.91918
C         51.81770       51.17102       88.08660
C         51.35029       51.67753       89.46040
C         50.98428       50.53288       90.35948
O         51.63457       50.36339       91.52695
O         50.10130       49.75249       90.04142
H         53.95822       52.47489       88.57805
H         51.52265       53.10360       87.19095
H         52.62054       50.42536       88.23393
H         50.95659       50.66768       87.59376
H         50.46892       52.34243       89.32903
H         52.15448       52.26208       89.95375
N         53.50367       51.04655       85.30879
C         54.54390       50.45563       86.12085
H         55.15138       51.24004       86.61275
H         54.11993       49.75704       86.86244
H         55.22501       49.86523       85.47103
H         53.53879       50.84805       84.30135
Ca        50.75624       53.60406       82.47780
O         48.59577       53.13915       85.13549
H         48.59990       52.52666       85.91305
H         47.65515       53.14318       84.82627
O         50.93263       55.14240       85.07251
H         51.75634       55.16530       84.52324
H         51.04894       55.87711       85.72481
O         49.14699       50.47527       83.17101
H         48.27204       50.07701       82.93319
H         49.42558       50.96259       82.35593

Ca 1.0



