%chk=apoCaM-CA-Ng.loop2.water6.frame474.chk
%nprocshared=20
%mem=10GB
%nosave
#b3lyp/svp scf=(tight,noincore,xqc) Test 
#IOP(5/87=12) Density=Current Pop=(MK,readradii) iop(6/33=2) iop(6/42=6)

apoCaM-CA-Ng.loop2.water6.frame474 

   -2  1 
C         45.52555       51.86503       78.54645
C         45.68249       50.63016       77.71069
O         45.71280       49.54736       78.27879
H         44.57603       51.80230       79.11931
H         46.37303       51.93949       79.26039
H         45.50392       52.78034       77.92004
N         45.79028       50.71170       76.35090
C         45.93670       49.53874       75.49789
C         47.27881       49.57892       74.77543
O         47.34483       49.28819       73.58886
C         44.71864       49.46911       74.54812
C         44.70024       48.23941       73.68290
O         44.66317       47.01622       74.24405
O         44.70215       48.34578       72.46650
H         45.76830       51.63942       75.90045
H         45.94477       48.61783       76.12105
H         44.70571       50.38103       73.90971
H         43.78885       49.46491       75.15707
N         48.40954       49.92908       75.45227
C         49.74245       49.86084       74.86728
C         50.22466       51.21568       74.39895
O         49.91299       52.21890       75.02660
C         50.71705       49.28554       75.89565
H         48.32646       50.25222       76.42885
H         49.74543       49.17224       73.99376
H         50.77766       49.94840       76.78680
H         50.37811       48.28082       76.22463
H         51.72807       49.19111       75.44907
N         51.05308       51.29470       73.31317
C         51.60650       52.54773       72.80393
C         53.10716       52.65973       73.03891
O         53.63820       53.74231       72.83301
C         51.24697       52.74089       71.31470
C         51.84958       51.72694       70.36701
O         52.66293       50.74351       70.80027
O         51.60445       51.80859       69.17457
H         51.31990       50.41529       72.84747
H         51.15511       53.39455       73.36629
H         51.58657       53.74916       70.99219
H         50.14082       52.70378       71.21462
N         53.84642       51.61156       73.50817
C         55.23968       51.72803       73.90849
C         55.40534       51.44534       75.39101
O         56.52013       51.56479       75.87977
H         53.40833       50.68883       73.63033
H         55.62520       52.75333       73.72127
H         55.85642       51.01868       73.31707
N         54.34495       51.08374       76.17478
C         54.40973       50.88486       77.61444
C         54.05720       49.45075       77.96066
O         53.77116       48.66212       77.06716
C         53.38857       51.84221       78.26411
C         53.65785       53.27262       77.88130
N         54.77425       53.90653       78.30628
O         52.85648       53.86274       77.17279
H         53.41122       50.96513       75.76059
H         55.43034       51.09459       78.00322
H         53.38333       51.75693       79.37073
H         52.37417       51.56230       77.89882
H         55.45472       53.42452       78.91104
H         54.95120       54.88653       78.04042
N         54.04944       49.03853       79.25617
C         53.64829       47.68772       79.61688
C         53.71809       47.41698       81.10146
O         54.14033       48.27173       81.87054
H         54.31830       49.71469       79.98676
H         54.30627       46.95455       79.10124
H         52.59975       47.52876       79.28186
N         53.31407       46.20539       81.57653
C         53.39133       45.85247       82.99244
C         52.56897       46.78936       83.86786
O         52.89712       46.91779       85.03891
C         53.02839       44.36863       83.26043
C         51.57909       44.00495       82.89217
O         53.93710       43.51213       82.61092
H         52.97105       45.51429       80.89326
H         54.45580       45.98412       83.29294
H         53.14121       44.18453       84.35114
H         53.74889       43.53249       81.63728
H         51.39000       42.93918       83.13990
H         50.86159       44.62700       83.46395
H         51.38542       44.14752       81.80912
N         51.50821       47.48974       83.36935
C         50.80027       48.51961       84.12717
C         50.91262       49.84950       83.40424
O         51.42402       49.89271       82.29198
C         49.33178       48.09429       84.44702
C         48.49100       47.59201       83.24171
C         49.35509       46.98798       85.51615
C         48.22733       48.63237       82.15712
H         51.21041       47.32125       82.39688
H         51.30880       48.69724       85.10063
H         48.80403       48.95600       84.91264
H         47.49455       47.27760       83.62443
H         48.96635       46.69746       82.78428
H         49.88399       47.34333       86.42682
H         48.32084       46.71602       85.81762
H         49.86709       46.07831       85.14065
H         47.56236       48.18875       81.38531
H         47.72286       49.52187       82.58984
H         49.16128       48.93457       81.65023
N         50.50591       51.00057       84.01132
C         50.69041       52.30406       83.38798
C         50.94666       53.35213       84.45904
O         50.23634       54.33968       84.54312
C         49.48707       52.59458       82.46754
C         49.64579       53.82903       81.62282
O         48.75684       54.13784       80.84659
O         50.75896       54.58603       81.68980
H         50.13309       50.95381       84.97275
H         51.61443       52.28248       82.76693
H         48.56556       52.67722       83.08324
H         49.35955       51.73969       81.76887
N         51.99865       53.18368       85.30603
C         52.36442       54.11304       86.37506
C         51.25260       54.13869       87.42445
O         50.87790       53.06603       87.87860
C         53.72924       53.65943       86.95298
C         54.43049       54.67151       87.83224
C         55.59971       55.30191       87.35925
C         53.96786       54.97823       89.12279
C         56.28553       56.22099       88.15505
C         54.66409       55.89633       89.92034
C         55.82006       56.51694       89.43630
H         52.58252       52.34380       85.16374
H         52.53525       55.11254       85.92351
H         54.38644       53.49181       86.07023
H         53.64691       52.68128       87.47471
H         55.98459       55.08553       86.36984
H         53.08224       54.50009       89.51861
H         57.18101       56.69933       87.77760
H         54.31199       56.12463       90.91747
H         56.35876       57.22473       90.05340
N         50.65631       55.29494       87.86140
C         49.57300       55.32403       88.83728
C         48.19191       55.21790       88.17956
O         47.20174       55.24375       88.89732
C         49.74616       56.71092       89.46664
C         50.11510       57.54855       88.25118
C         51.10825       56.63486       87.53198
H         49.68508       54.53956       89.61818
H         48.87625       57.07842       90.05358
H         50.63571       56.68633       90.13696
H         49.20150       57.64532       87.62215
H         50.49780       58.56912       88.46342
H         51.11112       56.84997       86.44257
H         52.12750       56.76696       87.95417
N         48.04733       55.17480       86.82302
C         46.75533       55.23287       86.14358
C         45.92008       53.97157       86.31294
O         44.77297       53.99239       85.88607
C         46.94723       55.46229       84.62642
C         47.66996       56.77580       84.28518
C         47.80818       56.90102       82.79770
O         46.81484       56.92281       82.08889
O         49.02715       56.96349       82.23261
H         48.89162       55.19929       86.24967
H         46.18806       56.09751       86.55568
H         45.94813       55.48962       84.13680
H         47.51737       54.60723       84.20074
H         48.68334       56.79998       84.73669
H         47.09272       57.64133       84.67406
N         46.41793       52.82890       86.86698
C         45.64758       51.60370       86.96919
H         44.61746       51.70973       86.56616
H         46.15719       50.80270       86.39309
H         45.57542       51.29775       88.03242
H         47.38958       52.79685       87.20482
Ca        49.16100       56.95814       79.98100
O         46.27549       56.28561       79.07625
H         45.56360       56.59076       78.45984
H         45.80502       55.72466       79.74282
O         47.47480       59.37464       80.41211
H         46.94879       59.69250       79.63626
H         46.97586       59.69798       81.20367
O         48.58763       58.38091       77.39808
H         48.60672       57.89442       76.53614
H         48.62769       59.33748       77.14676
O         51.76390       56.08023       79.01958
H         51.77912       55.12467       79.27701
H         52.18467       56.11139       78.12471
O         48.73449       55.14511       77.42248
H         49.53253       55.20022       76.83901
H         48.85652       54.30596       77.93328
O         51.20390       58.99142       79.66733
H         51.76780       58.77564       80.45225
H         51.19971       59.97982       79.62324

Ca 1.0



