%chk=apoCaM-CA-Ng.loop4.water7.frame1056.chk
%nprocshared=20
%mem=10GB
%nosave
#b3lyp/svp scf=(tight,noincore,xqc) Test 
#IOP(5/87=12) Density=Current Pop=(MK,readradii) iop(6/33=2) iop(6/42=6)

apoCaM-CA-Ng.loop4.water7.frame1056 

   -3  1 
C         24.19174       93.01726       59.39771
C         25.40998       92.76464       58.54377
O         25.65877       91.60580       58.24981
H         23.29318       92.61166       58.88986
H         24.31920       92.48893       60.36753
H         23.99771       94.08296       59.61481
N         26.25536       93.74544       58.10874
C         26.10519       95.16723       58.40318
C         25.14805       95.85563       57.43847
O         24.88169       97.03355       57.63870
C         27.47463       95.87423       58.31033
C         28.48199       95.25058       59.23564
O         29.50635       94.76158       58.78641
O         28.25822       95.22486       60.56337
H         27.08625       93.44653       57.57353
H         25.76155       95.29530       59.45126
H         27.36644       96.94648       58.58378
H         27.85136       95.82223       57.26549
N         24.63918       95.22195       56.33625
C         23.80931       95.91514       55.34821
C         24.55001       97.06212       54.64949
O         23.89257       97.83213       53.96437
C         23.16587       94.92086       54.31756
C         24.14407       94.04286       53.47942
C         22.18937       93.98404       55.05312
C         25.05071       94.80309       52.51670
H         24.85500       94.22862       56.18959
H         22.96794       96.38946       55.90299
H         22.54719       95.51415       53.60715
H         23.53107       93.36592       52.84409
H         24.76999       93.39913       54.13169
H         21.65781       93.33163       54.32714
H         22.72046       93.33382       55.77976
H         21.42152       94.57401       55.59688
H         25.62752       94.07531       51.90725
H         24.44944       95.43866       51.83295
H         25.78669       95.41529       53.05955
N         25.90136       97.24131       54.77884
C         26.66564       98.32171       54.15181
C         28.12257       98.18970       54.57422
O         28.69816       97.12952       54.36869
C         26.58076       98.26145       52.60414
C         27.23842       99.43547       51.91669
O         27.78222      100.44994       52.61842
O         27.25461       99.48219       50.69759
H         26.42608       96.56816       55.35134
H         26.25036       99.29584       54.49444
H         25.52588       98.26345       52.26896
H         27.05186       97.32098       52.24630
N         28.79076       99.21789       55.16735
C         30.16556       99.08754       55.62786
C         31.18747       98.78539       54.53875
O         32.33519       98.57015       54.90079
H         28.30211      100.11038       55.33508
H         30.19816       98.26572       56.37666
H         30.47425      100.02428       56.14081
N         30.87301       98.74943       53.20655
C         31.83527       98.41591       52.15803
C         31.31652       97.21513       51.36824
O         30.24723       97.34881       50.78867
C         32.01333       99.61168       51.20721
C         32.54671      100.81538       51.93063
O         33.74337      100.75901       52.54623
O         31.90165      101.85109       51.95834
H         29.91706       98.97086       52.90358
H         32.81998       98.21729       52.60459
H         31.03688       99.86332       50.73519
H         32.73012       99.33978       50.40226
N         31.93398       95.99545       51.29369
C         33.14342       95.58687       51.99229
C         34.02344       94.66436       51.15736
O         33.70202       94.44772       49.99651
H         31.41858       95.24832       50.80008
H         32.77293       95.01020       52.85403
H         33.74701       96.42919       52.34713
N         35.12459       94.01115       51.65775
C         35.68475       94.12184       53.00880
C         34.60352       93.93056       54.05790
O         34.35402       94.83152       54.85070
C         36.47100       95.44231       53.19547
C         37.64409       95.63549       52.21415
C         38.71749       94.57977       52.34254
N         39.11158       93.85642       51.26759
O         39.25647       94.39503       53.42387
H         35.59464       93.33838       51.03109
H         36.42728       93.30403       53.14800
H         36.88249       95.46517       54.22911
H         35.79561       96.31136       53.09114
H         38.11482       96.61598       52.44136
H         37.26024       95.67854       51.17241
H         38.68897       94.00986       50.34060
H         39.85854       93.15099       51.35707
N         33.88696       92.77583       54.08758
C         32.72409       92.55865       54.94848
C         31.54011       92.09395       54.10676
O         31.68101       91.98023       52.89353
C         33.07524       91.56805       56.09326
C         34.10946       92.19984       57.03661
C         33.57656       90.21104       55.58168
H         34.16674       92.01655       53.44518
H         32.40603       93.50878       55.43387
H         32.16652       91.38800       56.70495
H         33.71509       93.15686       57.44405
H         34.31409       91.52460       57.89339
H         35.06345       92.40658       56.50769
H         34.52279       90.32072       55.01149
H         33.76776       89.53054       56.43833
H         32.81266       89.74168       54.93097
N         30.34237       91.78120       54.68362
C         29.20293       91.28424       53.91961
C         28.97174       89.80027       54.16230
O         28.10565       89.24335       53.50353
C         27.92587       92.07686       54.27239
C         28.09521       93.56318       54.09848
N         28.39750       94.09458       52.89205
O         27.94890       94.29762       55.06291
H         30.24015       91.85512       55.70773
H         29.39909       91.38747       52.82993
H         27.65460       91.86819       55.33238
H         27.08192       91.73700       53.63267
H         28.51874       93.49442       52.06492
H         28.50684       95.11269       52.78238
N         29.69366       89.08786       55.08331
C         29.46157       87.66908       55.32135
C         29.81691       87.30866       56.75190
O         30.94952       87.50110       57.16797
C         30.16607       86.79995       54.24472
C         31.68295       86.84017       54.23827
C         32.42909       86.17393       55.22876
C         32.37109       87.50828       53.21033
C         33.82539       86.20152       55.21089
C         33.77056       87.53143       53.19115
C         34.50183       86.88041       54.19513
O         35.85005       86.89258       54.18996
H         30.38933       89.56613       55.67012
H         28.37235       87.47270       55.20609
H         29.78773       87.14906       53.25959
H         29.84913       85.73903       54.34228
H         31.93467       85.61832       56.01395
H         31.82647       88.01759       52.42564
H         34.38151       85.68721       55.98523
H         34.28517       88.05503       52.39581
H         36.35882       87.34241       53.50068
N         28.86070       86.81559       57.58481
C         29.14368       86.39873       58.94967
C         27.84277       86.42836       59.71999
O         27.25545       85.39420       60.00910
C         29.85403       85.02726       58.93795
C         30.37900       84.64599       60.33024
C         31.12020       83.34082       60.29204
O         30.70909       82.30908       61.05307
O         32.10897       83.21371       59.58667
H         27.89311       86.72977       57.23426
H         29.82147       87.13745       59.43363
H         30.73025       85.08803       58.25689
H         29.16902       84.24354       58.54406
H         29.53726       84.56998       61.05020
H         31.07724       85.43419       60.68781
N         27.32237       87.64150       60.05040
C         26.01539       87.81351       60.65800
C         24.96807       87.54790       59.59358
O         24.11342       86.69386       59.78115
C         25.88753       89.25308       61.21356
C         24.59813       89.54327       62.00361
C         24.53730       88.81644       63.32336
O         24.54449       89.45233       64.36561
O         24.46462       87.47433       63.37665
H         27.88266       88.48342       59.84211
H         25.92605       87.11209       61.51074
H         25.94883       89.97093       60.36924
H         26.74938       89.46294       61.88540
H         23.69812       89.31513       61.39510
H         24.59246       90.63412       62.22098
N         25.01129       88.24180       58.41923
C         24.07104       88.03107       57.34214
H         23.04295       88.27528       57.68029
H         24.32983       88.69203       56.48561
H         24.11738       86.97679       56.99701
H         25.75809       88.93671       58.26982
Ca        24.47146       86.46156       65.39478
O         27.35791       86.66442       66.64970
H         27.72154       87.41710       67.18019
H         27.90433       85.88407       66.91913
O         21.95564       87.73782       66.57922
H         22.01601       88.72546       66.54751
H         21.49744       87.49062       65.73707
O         26.59050       85.24434       63.57356
H         27.51430       85.23547       63.92899
H         26.37210       84.29117       63.41956
O         24.13945       85.98243       68.42561
H         24.61468       86.39019       69.19249
H         23.50559       85.34202       68.83575
O         25.10417       88.85905       67.46981
H         25.93392       89.12724       67.93853
H         24.37817       89.29969       67.97853
O         22.03844       84.68527       64.97904
H         21.93280       85.32632       64.23159
H         22.79313       84.10650       64.70344
O         25.26760       83.67101       66.33642
H         25.44487       83.09686       65.54963
H         24.69998       83.11524       66.92720

Ca 1.0



