%chk=apoCaM-CA-Ng.loop1.water3.frame1353.chk
%nprocshared=20
%mem=10GB
%nosave
#b3lyp/svp scf=(tight,noincore,xqc) Test 
#IOP(5/87=12) Density=Current Pop=(MK,readradii) iop(6/33=2) iop(6/42=6)

apoCaM-CA-Ng.loop1.water3.frame1353 

   0  1 
C         58.10185       42.02391       81.52829
C         57.38062       43.21403       80.98003
O         57.25450       43.31039       79.76944
H         59.00204       42.36396       82.08111
H         57.43309       41.45887       82.20798
H         58.42690       41.35317       80.70240
N         56.88884       44.17369       81.81827
C         56.23868       45.38888       81.33503
C         57.04051       46.61178       81.73204
O         56.48203       47.59846       82.19292
C         54.75795       45.44869       81.76953
C         54.52457       45.51636       83.26034
O         55.54710       45.54787       84.13766
O         53.38041       45.55750       83.68167
H         57.01647       44.04611       82.83222
H         56.23714       45.39018       80.23175
H         54.24423       44.54691       81.37247
H         54.28551       46.34175       81.30371
N         58.38951       46.60386       81.56502
C         59.22789       47.75842       81.84462
C         58.94283       48.86340       80.83465
O         58.64321       49.96206       81.28179
C         60.71896       47.36272       81.98420
C         60.86584       46.39142       83.17905
C         62.31425       46.06370       83.54912
C         62.33022       45.14555       84.78606
N         63.69338       44.85469       85.22373
H         58.83634       45.73570       81.23419
H         58.96481       48.15723       82.85206
H         61.30175       48.28357       82.20687
H         61.13174       46.90759       81.06079
H         60.32788       45.44322       82.96325
H         60.39809       46.86163       84.07269
H         62.85065       47.00756       83.78874
H         62.82359       45.56322       82.69747
H         61.80704       44.19168       84.54952
H         61.78533       45.63950       85.62255
H         63.65324       44.23386       86.06488
H         64.22002       44.36607       84.46458
H         64.18148       45.74195       85.48514
N         58.89405       48.68675       79.47804
C         59.15888       47.44373       78.75463
C         57.84682       46.80608       78.28281
O         56.78604       47.38158       78.47988
C         60.13148       47.73355       77.58816
C         59.48813       48.64312       76.57881
O         58.36600       48.22147       75.97512
O         59.92795       49.75639       76.36930
H         58.57888       49.49502       78.91852
H         59.65175       46.71099       79.41074
H         60.41832       46.78910       77.08403
H         61.05816       48.19710       77.99331
N         57.85500       45.58141       77.68069
C         56.65117       44.86324       77.27339
C         55.91785       45.45835       76.09817
O         56.35264       46.45474       75.54880
H         58.75648       45.09594       77.57466
H         55.94825       44.78647       78.12460
H         56.94286       43.83350       76.97421
N         54.80408       44.82655       75.62678
C         54.04070       45.22865       74.43727
C         53.16268       44.06495       73.94793
O         52.77181       43.23651       74.76107
C         53.15194       46.47943       74.69185
C         53.97042       47.71152       74.93135
O         54.80792       48.15795       73.97095
O         53.94736       48.25983       76.02126
H         54.55059       43.94987       76.10860
H         54.77754       45.44741       73.64708
H         52.48773       46.27271       75.55983
H         52.50266       46.69471       73.82094
N         52.77860       43.90896       72.64407
C         53.13906       44.80623       71.55941
C         54.61492       44.79719       71.24209
O         55.35780       43.96273       71.73754
H         52.16249       43.11556       72.40849
H         52.81956       45.83163       71.82437
H         52.59610       44.52360       70.63205
N         55.10424       45.77067       70.43065
C         56.51573       45.93789       70.10855
C         57.36114       46.11208       71.36449
O         56.99468       46.87451       72.24554
C         56.69125       47.15266       69.16288
C         58.15471       47.39282       68.77368
O         56.17277       48.31014       69.76647
H         54.42881       46.45067       70.04831
H         56.86866       45.04072       69.55261
H         56.11747       46.91952       68.23406
H         55.83456       48.89273       69.03719
H         58.20853       48.23569       68.05535
H         58.76416       47.65875       69.66312
H         58.58652       46.48752       68.29755
N         58.56872       45.48040       71.43322
C         59.57966       45.61374       72.47860
C         59.97856       47.07237       72.66705
O         59.21574       47.80813       73.27461
C         59.15781       44.98473       73.84352
C         58.43339       43.62226       73.72225
C         60.38107       44.87728       74.77592
C         59.22696       42.51235       73.03666
H         58.83825       44.88882       70.63200
H         60.46276       45.04260       72.11154
H         58.41986       45.65572       74.32834
H         57.49058       43.77191       73.15934
H         58.14843       43.27726       74.74088
H         61.15895       44.21610       74.34006
H         60.84101       45.87331       74.93942
H         60.08672       44.46484       75.76203
H         58.60116       41.59512       73.00198
H         59.48129       42.79717       71.99587
H         60.15278       42.27604       73.59784
N         61.16387       47.56094       72.20224
C         61.59924       48.93113       72.47699
C         61.71272       49.80705       71.23779
O         62.06276       50.96504       71.41985
C         62.91623       48.92408       73.29542
C         64.10820       48.33088       72.53783
O         62.73291       48.20192       74.48568
H         61.78147       46.93730       71.66274
H         60.85201       49.45193       73.11569
H         63.19428       49.97605       73.54540
H         62.22925       48.79198       75.10538
H         64.29919       48.89684       71.60192
H         65.01703       48.39591       73.17328
H         63.93912       47.26319       72.29143
N         61.42511       49.37924       69.96777
C         61.52658       50.28896       68.82206
C         60.52004       51.42455       68.99157
O         59.33160       51.19958       68.82140
C         61.32605       49.54465       67.47669
C         61.47487       50.47616       66.26877
O         62.28064       48.51911       67.35872
H         61.14356       48.40068       69.81328
H         62.56251       50.69758       68.82039
H         60.29650       49.12010       67.43436
H         61.84003       47.66873       67.62082
H         62.48883       50.92916       66.24994
H         61.32575       49.89933       65.33082
H         60.71709       51.28718       66.29440
N         60.95105       52.64898       69.41666
C         60.12100       53.80142       69.77160
C         59.08579       53.45830       70.82930
O         58.16639       52.70174       70.55207
C         59.45242       54.48369       68.57254
C         60.46473       54.83858       67.47859
C         59.85066       55.82176       66.47470
C         60.71474       56.02515       65.22050
N         62.07733       56.46414       65.52586
H         61.96370       52.76526       69.57648
H         60.81680       54.56087       70.19710
H         58.98717       55.41766       68.96298
H         58.65057       53.85139       68.13330
H         60.77672       53.89775       66.97528
H         61.35903       55.32159       67.92993
H         59.69214       56.79671       66.98942
H         58.86132       55.44594       66.13558
H         60.21646       56.78752       64.58124
H         60.75734       55.07180       64.64984
H         62.57703       56.65244       64.62691
H         62.06317       57.33783       66.09939
H         62.59901       55.71032       66.02826
N         59.18478       53.97862       72.08214
C         58.28073       53.59735       73.15999
C         58.88656       52.43887       73.93565
O         58.25168       51.39523       73.94440
C         57.85116       54.79470       74.03295
C         57.11515       55.85925       73.20625
C         56.68503       57.00722       74.07346
O         55.50204       57.28863       74.18001
O         57.60522       57.74069       74.72900
H         59.98635       54.58717       72.28724
H         57.32952       53.20797       72.72631
H         58.71568       55.26288       74.53717
H         57.16028       54.42306       74.82288
H         56.22228       55.39970       72.72627
H         57.78111       56.25139       72.40853
N         60.09557       52.45126       74.57218
C         61.02555       53.54993       74.70047
H         61.98270       53.26899       74.21352
H         60.67944       54.49131       74.26490
H         61.21377       53.73291       75.77840
H         60.41064       51.57563       75.00284
Ca        56.73120       49.09070       74.68921
O         55.14039       51.02875       72.59234
H         54.66731       51.65796       73.19229
H         55.40784       51.58098       71.81524
O         55.84651       50.62981       77.31802
H         54.89735       50.36659       77.41694
H         56.34578       49.77691       77.36847
O         58.09986       49.65174       71.59607
H         58.86111       50.16150       71.22612
H         57.29828       50.11306       71.24936

Ca 1.0



