%chk=apoCaM-CA-Ng.loop1.water1.frame868.chk
%nprocshared=20
%mem=10GB
%nosave
#b3lyp/svp scf=(tight,noincore,xqc) Test 
#IOP(5/87=12) Density=Current Pop=(MK,readradii) iop(6/33=2) iop(6/42=6)

apoCaM-CA-Ng.loop1.water1.frame868 

   0  1 
C         42.78075       12.93299      105.53630
C         41.37740       13.38268      105.25357
O         40.60940       12.62484      104.67867
H         43.50256       13.61921      105.04585
H         42.95796       12.94305      106.63270
H         42.95076       11.90238      105.15823
N         40.97544       14.62224      105.64636
C         39.62834       15.14393      105.44649
C         39.67766       16.37096      104.55222
O         40.39542       17.31260      104.85443
C         38.94814       15.40120      106.80742
C         39.73686       16.25174      107.76747
O         40.00429       17.41052      107.50523
O         40.13690       15.73211      108.94384
H         41.66319       15.22763      106.12209
H         38.98713       14.38948      104.94073
H         38.79739       14.41109      107.29061
H         37.94493       15.85071      106.64158
N         38.94863       16.39849      103.39786
C         39.02461       17.47853      102.41892
C         38.68327       18.84727      103.01088
O         37.52091       19.16999      103.19662
C         38.19776       17.14447      101.14174
C         36.68953       16.88731      101.38060
C         35.97175       16.47983      100.08712
C         34.48554       16.19296      100.35754
N         33.78796       15.81423       99.12941
H         38.36818       15.57709      103.18169
H         40.08614       17.52125      102.08746
H         38.63066       16.21978      100.69951
H         38.32164       17.96343      100.39936
H         36.19470       17.79405      101.77794
H         36.55131       16.06609      102.11266
H         36.44629       15.56346       99.67161
H         36.06161       17.29970       99.34199
H         34.00293       17.09926      100.78631
H         34.39470       15.36610      101.09778
H         33.84140       16.59174       98.43208
H         34.21141       14.94686       98.72670
H         32.78294       15.62796       99.35104
N         39.69823       19.70718      103.31842
C         39.54485       21.08925      103.76781
C         40.95555       21.78028      103.84277
O         41.97563       21.07585      104.49528
C         38.54357       21.29707      104.96334
C         38.39173       20.26659      106.07439
O         37.32353       19.68694      106.20040
O         39.35348       20.02934      106.98086
H         40.66112       19.36342      103.18630
H         39.06090       21.63896      102.93345
H         37.53674       21.33016      104.48827
H         38.68167       22.30833      105.39909
N         41.00550       23.21326      104.17981
C         40.14525       24.07566      103.35090
C         40.29083       23.87928      101.85213
O         41.08773       23.06793      101.40109
H         41.99446       23.53211      104.05213
H         40.35925       25.13827      103.59654
H         39.08602       23.89032      103.62445
N         39.47142       24.58093      101.02158
C         39.39668       24.35968       99.58027
C         39.66624       25.63138       98.79638
O         39.82931       26.69059       99.38776
C         38.01246       23.76454       99.22006
C         36.84045       24.65487       99.56213
O         36.11267       25.07181       98.67592
O         36.55171       24.95384      100.84352
H         38.83095       25.26440      101.44911
H         40.16365       23.61765       99.26773
H         37.88071       22.79746       99.75130
H         37.98868       23.54430       98.13186
N         39.72345       25.58858       97.43113
C         39.91704       26.76727       96.60340
C         41.26786       27.43350       96.76806
O         41.44468       28.49632       96.19196
H         39.58250       24.68788       96.94977
H         39.11735       27.49833       96.85113
H         39.80726       26.49264       95.53151
N         42.26683       26.88366       97.51976
C         43.54313       27.55019       97.76318
C         43.71242       27.79262       99.25415
O         42.86250       27.38502      100.03233
C         44.71604       26.73810       97.15283
C         44.87700       25.33904       97.75689
O         44.52993       26.60685       95.76710
H         42.12274       25.96666       97.96151
H         43.55577       28.55131       97.27947
H         45.67497       27.27483       97.34004
H         44.75804       27.48380       95.36034
H         43.98533       24.71053       97.55855
H         45.75743       24.83878       97.30003
H         45.04094       25.39731       98.85171
N         44.79051       28.48829       99.71455
C         45.00221       28.79014      101.12874
C         44.94493       30.29532      101.31833
O         44.18145       30.75545      102.15918
C         46.34548       28.20637      101.65493
C         46.53948       26.74142      101.18526
C         46.35866       28.30329      103.19813
C         47.84692       26.10616      101.66217
H         45.48036       28.82442       99.02984
H         44.19550       28.32554      101.73932
H         47.18933       28.80149      101.24111
H         46.57670       26.73672      100.07534
H         45.68658       26.10801      101.51241
H         47.32380       27.96598      103.62329
H         46.20744       29.34936      103.53477
H         45.54543       27.67667      103.62897
H         47.95549       25.10048      101.20443
H         48.71445       26.73018      101.35926
H         47.85070       25.97292      102.76277
N         45.66877       31.12849      100.51227
C         45.58407       32.58313      100.56921
C         46.97102       33.20106      100.43987
O         47.93576       32.48886      100.18058
C         44.64157       33.08741       99.43905
C         43.22740       32.49487       99.55403
O         44.55355       34.48990       99.42278
H         46.23394       30.71768       99.75399
H         45.16202       32.89592      101.55103
H         45.06198       32.76574       98.46110
H         44.12366       34.77487      100.27195
H         42.76812       32.77767      100.52627
H         42.58903       32.88317       98.73355
H         43.24733       31.38861       99.47428
N         47.14768       34.53308      100.65380
C         48.44500       35.18948      100.63169
C         48.95017       35.21321      102.05707
O         49.99288       34.63026      102.31439
C         48.34494       36.55889       99.90866
C         49.69898       37.27700       99.79498
O         47.37387       37.39403      100.49311
H         46.34035       35.08502      100.98008
H         49.17177       34.58097      100.04378
H         48.01160       36.35507       98.86661
H         47.78412       37.86356      101.26426
H         50.09546       37.53412      100.79983
H         50.43611       36.63380       99.26988
H         49.57420       38.21544       99.21251
N         48.20099       35.76547      103.05400
C         48.51398       35.58730      104.46681
C         47.36181       34.86349      105.14903
O         46.33398       34.63273      104.52750
C         48.75926       36.94802      105.14400
C         49.96477       37.68600      104.54111
C         50.34774       38.94332      105.34421
C         49.26539       40.03585      105.42196
N         48.94160       40.59127      104.10780
H         47.32787       36.25727      102.81811
H         49.42229       34.95938      104.59482
H         48.96895       36.77495      106.22125
H         47.84478       37.57356      105.05885
H         49.77022       37.94073      103.47789
H         50.84344       37.00505      104.56858
H         51.26569       39.38264      104.89743
H         50.59764       38.63018      106.38176
H         49.65386       40.85376      106.06860
H         48.34510       39.64531      105.90655
H         48.25512       41.37040      104.23047
H         49.80497       40.97278      103.65719
H         48.50891       39.86396      103.49562
N         47.46856       34.48875      106.45570
C         46.36143       33.89157      107.19483
C         45.90174       32.57200      106.57138
O         44.74216       32.51704      106.18528
C         46.68128       33.76168      108.70217
C         46.93399       35.13192      109.35822
C         47.18999       34.98602      110.83007
O         48.36356       35.38854      111.35414
O         46.33353       34.51334      111.56034
H         48.35649       34.67166      106.94338
H         45.49931       34.59625      107.14051
H         47.56876       33.13082      108.87749
H         45.80601       33.29051      109.20191
H         46.05218       35.79216      109.21255
H         47.81522       35.62302      108.89482
N         46.68791       31.46949      106.38951
C         48.08218       31.35880      106.75644
H         48.68243       32.14239      106.25231
H         48.20743       31.40184      107.85200
H         48.46907       30.36736      106.43699
H         46.26366       30.64669      105.93238
Ca        41.29483       20.95589      106.60012
O         43.40641       18.19874      104.62955
H         42.90538       18.25463      103.77739
H         44.12286       17.53885      104.45205

Ca 1.0



