%chk=apoCaM-CA-Ng.loop2.water3.frame50.chk
%nprocshared=20
%mem=10GB
%nosave
#b3lyp/svp scf=(tight,noincore,xqc) Test 
#IOP(5/87=12) Density=Current Pop=(MK,readradii) iop(6/33=2) iop(6/42=6)

apoCaM-CA-Ng.loop2.water3.frame50 

   -2  1 
C         61.29292       58.28127       73.33426
C         62.64074       58.28510       73.99241
O         63.36479       57.30654       73.88494
H         60.50494       58.41835       74.10545
H         61.23131       59.11179       72.60070
H         61.11074       57.32020       72.80851
N         63.03987       59.37222       74.70746
C         64.31384       59.44590       75.41725
C         64.39619       58.36597       76.48815
O         65.44804       57.76248       76.64017
C         64.48864       60.84450       76.04221
C         65.85142       61.02078       76.65473
O         65.97266       61.30600       77.96464
O         66.85356       60.92151       75.96367
H         62.39859       60.18030       74.75331
H         65.13887       59.30871       74.68130
H         63.70121       61.01663       76.80803
H         64.37594       61.61500       75.24792
N         63.29196       58.03147       77.22008
C         63.23547       56.95834       78.20896
C         63.67724       55.62861       77.60757
O         64.51402       54.94720       78.18512
C         64.03825       57.34153       79.46045
H         62.41004       58.53194       77.03203
H         62.17310       56.84703       78.51979
H         63.93494       56.55702       80.23996
H         65.11509       57.46914       79.22165
H         63.65212       58.29716       79.87471
N         63.18636       55.23533       76.39594
C         63.61347       54.03899       75.67258
C         65.13642       53.96302       75.61079
O         65.70757       52.94644       75.98521
C         62.97516       52.75832       76.27323
C         61.46864       52.82597       76.27440
O         60.85961       52.80198       77.33155
O         60.78215       52.97706       75.12481
H         62.52771       55.86364       75.91227
H         63.24796       54.13218       74.62806
H         63.33600       52.62127       77.31594
H         63.28161       51.87181       75.67715
N         65.86752       55.03718       75.18827
C         67.32354       55.03203       75.17765
C         67.89955       54.10394       74.13086
O         69.09353       53.84481       74.17633
H         65.38046       55.90160       74.91585
H         67.67577       54.72645       76.18804
H         67.71503       56.05252       74.97944
N         67.11757       53.57604       73.14780
C         67.59476       52.60934       72.16802
C         68.74443       53.15230       71.34457
O         69.79864       52.53162       71.37095
C         66.42988       52.13970       71.27549
C         65.35756       51.49664       72.12202
N         65.61676       50.38813       72.85451
O         64.24744       51.99650       72.16187
H         66.12656       53.85291       73.10354
H         67.97241       51.71816       72.71602
H         66.78470       51.39701       70.53012
H         66.00651       53.01175       70.72715
H         66.54478       49.94303       72.83676
H         64.88649       49.97280       73.44880
N         68.64120       54.30042       70.61111
C         69.76639       54.82784       69.84891
C         69.43080       54.96348       68.38849
O         68.97396       53.99897       67.79075
H         67.75546       54.82944       70.61543
H         70.64801       54.15699       69.91520
H         70.07115       55.80866       70.27114
N         69.69939       56.12734       67.72710
C         69.45053       56.28549       66.29487
C         67.95899       56.34216       65.97662
O         67.61685       56.29752       64.80131
C         70.22557       57.49742       65.69970
C         69.80785       58.87139       66.24644
O         71.61241       57.31132       65.85109
H         70.15322       56.88824       68.25125
H         69.86854       55.38815       65.78542
H         70.02765       57.52060       64.60552
H         71.84492       57.45126       66.80546
H         69.97123       58.94978       67.34054
H         70.40717       59.66464       65.75080
H         68.74513       59.06492       66.02318
N         67.01622       56.43777       66.95995
C         65.57613       56.42234       66.72210
C         64.94734       55.25521       67.47761
O         65.65877       54.51227       68.14531
C         64.93931       57.79770       67.11768
C         65.08326       58.11173       68.63209
C         65.53089       58.91533       66.24248
C         64.37625       59.40038       69.06008
H         67.31994       56.52005       67.94049
H         65.35621       56.26134       65.64290
H         63.85554       57.75783       66.87972
H         66.15262       58.19248       68.91778
H         64.62831       57.28334       69.21449
H         66.60010       59.05968       66.47670
H         65.42449       58.66144       65.16624
H         65.00534       59.87797       66.40005
H         64.47035       59.52482       70.15943
H         64.83692       60.29072       68.58584
H         63.29788       59.35700       68.79816
N         63.60107       55.06269       67.44832
C         62.90008       54.05670       68.23921
C         61.97514       53.20397       67.35124
O         61.19970       52.41996       67.87692
C         62.12691       54.85675       69.30396
C         61.65046       54.14130       70.53141
O         61.05443       54.79853       71.36986
O         62.00636       52.88256       70.84443
H         63.01969       55.72182       66.90659
H         63.62241       53.39603       68.76850
H         61.29240       55.40004       68.82570
H         62.81912       55.62471       69.71718
N         62.01874       53.31070       65.98461
C         61.13980       52.60639       65.04877
C         59.70340       53.10848       65.18161
O         59.52738       54.31785       65.11357
C         61.59798       52.92332       63.59703
C         60.66998       52.33038       62.56110
C         60.61966       50.94451       62.34224
C         59.81904       53.17354       61.82412
C         59.72327       50.41187       61.40919
C         58.92044       52.63744       60.89984
C         58.87116       51.25741       60.69273
H         62.72642       53.92817       65.56522
H         61.22793       51.51394       65.21024
H         62.63821       52.57473       63.41647
H         61.60471       54.03084       63.48215
H         61.26815       50.27855       62.89769
H         59.83374       54.24506       61.98163
H         59.68317       49.34294       61.24643
H         58.25794       53.29333       60.34995
H         58.17102       50.84445       59.97851
N         58.60859       52.27985       65.26665
C         57.23940       52.78227       65.18944
C         56.85496       53.70376       66.32727
O         55.83737       54.37570       66.23784
C         56.37780       51.51628       65.20783
C         57.29474       50.51528       64.53284
C         58.62791       50.83372       65.20400
H         57.15371       53.31414       64.21466
H         56.25589       51.16573       66.25965
H         55.37068       51.63612       64.75498
H         56.97884       49.45440       64.61894
H         57.36630       50.78521       63.45363
H         58.64777       50.43572       66.24265
H         59.45003       50.39765       64.61174
N         57.60912       53.74226       67.45587
C         57.35049       54.62594       68.57892
C         57.69898       56.04345       68.17143
O         56.87405       56.93251       68.32769
C         58.18131       54.16243       69.79139
C         57.74840       52.75022       70.24030
C         58.58698       52.24456       71.37440
O         58.60658       52.90069       72.54935
O         59.24142       51.22238       71.24161
H         58.41467       53.10480       67.52752
H         56.28317       54.56649       68.89046
H         58.04115       54.86950       70.63842
H         59.24966       54.15031       69.50675
H         57.83743       52.03162       69.39755
H         56.68408       52.76894       70.55888
N         58.90087       56.31337       67.58898
C         59.27147       57.63636       67.13739
H         60.26497       57.60005       66.63950
H         58.52622       58.01003       66.40283
H         59.32902       58.33170       68.00021
H         59.56476       55.54415       67.42367
Ca        61.69529       52.70668       73.07984
O         61.86211       49.37349       71.04468
H         62.54214       49.06444       70.39468
H         61.32044       48.56761       71.23948
O         62.44844       49.45653       74.29598
H         62.22963       49.19661       75.22573
H         62.88024       48.65377       73.90907
O         59.51042       49.72992       73.82798
H         59.60427       48.74597       73.76796
H         58.77494       49.87181       74.47514

Ca 1.0



