%chk=apoCaM-CA-Ng.loop3.water5.frame459.chk
%nprocshared=20
%mem=10GB
%nosave
#b3lyp/svp scf=(tight,noincore,xqc) Test 
#IOP(5/87=12) Density=Current Pop=(MK,readradii) iop(6/33=2) iop(6/42=6)

apoCaM-CA-Ng.loop3.water5.frame459 

   0  1 
C         53.76839       41.18304      100.26407
C         53.11926       39.91109      100.71987
O         52.12602       39.98419      101.42695
H         54.66869       40.98081       99.64714
H         53.04851       41.78132       99.66902
H         54.08044       41.76965      101.15442
N         53.64005       38.69921      100.37079
C         53.12401       37.42121      100.85048
C         53.30130       37.35623      102.35816
O         52.33773       37.20944      103.09819
C         51.67169       37.17314      100.37932
C         51.56024       37.24991       98.88132
O         52.20254       36.48970       98.17414
O         50.74728       38.16060       98.31234
H         54.47234       38.67317       99.76210
H         53.74767       36.60562      100.41875
H         50.97809       37.91151      100.83073
H         51.34579       36.16234      100.70782
N         54.55961       37.47461      102.87063
C         54.86862       37.44553      104.29983
C         54.28874       38.62250      105.08077
O         54.35564       38.59163      106.30216
C         56.39861       37.38459      104.51809
C         57.14094       38.64855      104.02063
C         58.66775       38.51935      104.10459
C         59.19492       38.41493      105.54241
N         60.65406       38.31953      105.54866
H         55.33195       37.54278      102.19234
H         54.43118       36.50726      104.70876
H         56.78769       36.49426      103.97716
H         56.59470       37.23838      105.60085
H         56.80903       39.54424      104.58902
H         56.90510       38.82637      102.95228
H         59.11221       39.42509      103.63651
H         58.99139       37.63325      103.51564
H         58.77905       37.51641      106.04443
H         58.88187       39.31696      106.11402
H         60.98984       38.26425      106.53702
H         60.95710       37.45731      105.03943
H         61.07393       39.16269      105.09384
N         53.73302       39.70207      104.45970
C         53.14676       40.82505      105.18164
C         51.99471       40.33797      106.06457
O         51.15359       39.57811      105.60594
C         52.70573       41.93318      104.18513
C         51.98135       43.03666      104.89511
O         50.93775       42.76453      105.44280
O         52.38947       44.31316      104.96317
H         53.72908       39.73734      103.43338
H         53.92189       41.29408      105.82833
H         52.00618       41.51602      103.43141
H         53.59920       42.33319      103.65928
N         51.88842       40.79995      107.34497
C         50.85541       40.40841      108.29418
C         49.43945       40.67627      107.81569
O         48.64154       39.75045      107.80331
H         52.58845       41.48147      107.67687
H         51.01245       40.98331      109.23408
H         50.97242       39.33098      108.53719
N         49.05602       41.92131      107.41609
C         47.69394       42.27238      107.00849
C         47.47698       42.27765      105.48910
O         46.43140       42.73541      105.04683
C         47.23382       43.58401      107.69643
C         48.00831       44.87892      107.34665
N         47.26258       46.02365      107.84796
O         49.26289       44.89765      107.96861
H         49.76958       42.65526      107.41715
H         46.98551       41.49574      107.37357
H         47.24996       43.44943      108.80001
H         46.16931       43.73212      107.40794
H         46.34798       46.08994      107.35003
H         47.81394       46.88308      107.63691
N         48.35234       41.67341      104.63842
C         48.15318       41.54692      103.19975
C         48.16628       42.87590      102.47656
O         47.28181       43.14686      101.67940
H         49.18657       41.21539      105.02444
H         47.22106       40.98196      102.98096
H         49.00473       40.95694      102.79341
N         49.18268       43.74196      102.71134
C         49.41742       45.00134      102.02338
C         49.13306       46.14343      102.97321
O         49.61563       46.13148      104.09429
C         50.88801       45.00773      101.55658
C         51.35016       46.33880      101.01578
C         50.74023       46.92344       99.89480
C         52.41513       47.00716      101.64515
C         51.19099       48.15782       99.41345
C         52.86407       48.23637      101.16235
C         52.25375       48.81656      100.04295
O         52.67821       50.00446       99.56765
H         49.85153       43.48895      103.44232
H         48.75914       45.11102      101.13405
H         51.02799       44.22026      100.78478
H         51.53158       44.73663      102.42128
H         49.91811       46.42699       99.39562
H         52.90206       46.57706      102.51207
H         50.71379       48.60331       98.55022
H         53.68588       48.73527      101.66063
H         53.40860       50.48948       99.97831
N         48.35574       47.18778      102.56679
C         47.96949       48.26412      103.46557
C         46.84271       47.75904      104.33570
O         46.94513       47.87576      105.54622
C         47.58106       49.56423      102.70347
C         48.70069       50.03944      101.73369
C         47.24033       50.69931      103.69788
C         50.06044       50.32023      102.38973
H         48.00684       47.20567      101.59727
H         48.83438       48.54647      104.10133
H         46.67509       49.36695      102.08854
H         48.35962       50.96787      101.22585
H         48.85667       49.27662      100.94345
H         48.09894       50.93394      104.35963
H         46.94827       51.61980      103.14946
H         46.40022       50.42727      104.36109
H         50.77111       50.68009      101.61866
H         49.98831       51.10694      103.16669
H         50.48734       49.39852      102.83589
N         45.74865       47.14403      103.79261
C         44.67102       46.61267      104.62195
C         43.88288       47.71943      105.31237
O         43.14411       47.41569      106.23651
C         43.73732       45.69973      103.81358
O         43.11036       46.42138      102.78952
H         45.71340       47.00548      102.77010
H         45.13986       45.97104      105.39873
H         42.96926       45.26166      104.48977
H         44.34704       44.87482      103.37734
H         42.61562       45.75220      102.24835
N         44.00080       49.02451      104.91704
C         43.34831       50.17160      105.54435
C         43.86992       50.48741      106.94714
O         43.41760       51.47645      107.51106
C         41.82045       50.02460      105.50879
H         44.57153       49.23710      104.09004
H         43.59397       51.06548      104.92707
H         41.33806       50.95602      105.87381
H         41.48546       49.85152      104.46324
H         41.46759       49.18625      106.14121
N         44.82925       49.73947      107.57033
C         45.36441       50.06590      108.88900
C         46.13365       51.36996      108.83691
O         47.08359       51.45808      108.06955
C         46.30727       48.95864      109.37197
H         45.20354       48.90491      107.10370
H         44.52428       50.12524      109.61591
H         46.69169       49.19570      110.38663
H         45.76423       47.99070      109.41716
H         47.17047       48.85588      108.68106
N         45.77050       52.43159      109.61581
C         46.44531       53.72718      109.58760
C         46.40176       54.28673      108.17669
O         47.44033       54.57687      107.59736
C         47.89368       53.63039      110.14353
C         47.99862       53.19535      111.61745
C         47.48303       54.23000      112.58479
O         46.30286       54.53796      112.60508
O         48.33055       54.80774      113.45863
H         44.95168       52.33471      110.23557
H         45.87982       54.43949      110.22121
H         48.40071       54.61605      110.04675
H         48.46871       52.90400      109.53234
H         49.07834       53.04572      111.83849
H         47.48257       52.22554      111.78085
N         45.19899       54.44341      107.55783
C         45.05431       54.93776      106.20454
H         44.42425       55.85088      106.21316
H         46.03003       55.18732      105.73721
H         44.55895       54.16120      105.58469
H         44.33807       54.18693      108.06437
Ca        50.95672       45.26847      106.45050
O         51.68653       46.98624      109.14460
H         52.26520       47.77532      108.99327
H         50.88415       47.34786      109.59812
O         51.89731       43.96848      108.92070
H         52.70817       43.54466      109.29636
H         51.16009       43.66722      109.50884
O         52.53869       48.00048      105.16573
H         52.71981       48.63187      105.90681
H         52.60759       48.55336      104.34752
O         50.06035       48.37970      106.98408
H         49.31367       48.60254      106.37692
H         49.82682       48.83459      107.83120
O         54.01000       45.99887      107.22672
H         54.62121       45.60806      106.55301
H         54.58359       46.60055      107.76461

Ca 1.0



