%chk=apoCaM-CA-Ng.loop2.water4.frame670.chk
%nprocshared=20
%mem=10GB
%nosave
#b3lyp/svp scf=(tight,noincore,xqc) Test 
#IOP(5/87=12) Density=Current Pop=(MK,readradii) iop(6/33=2) iop(6/42=6)

apoCaM-CA-Ng.loop2.water4.frame670 

   -2  1 
C        -15.31025       42.62707       78.77422
C        -16.52104       41.85327       79.21946
O        -17.17580       41.24428       78.38598
H        -14.57874       41.94552       78.29325
H        -15.61511       43.40783       78.04533
H        -14.81142       43.13096       79.62985
N        -16.89513       41.85716       80.52854
C        -18.08690       41.17946       81.02749
C        -17.96579       39.67038       80.90240
O        -16.98835       39.10901       81.37511
C        -18.32220       41.54801       82.50571
C        -19.61413       40.97021       83.01902
O        -20.67512       41.27803       82.49841
O        -19.60641       40.11076       84.05504
H        -16.32755       42.40585       81.19357
H        -18.96835       41.55214       80.45852
H        -18.37806       42.65366       82.60422
H        -17.47233       41.18545       83.12509
N        -18.98138       38.94294       80.35781
C        -18.96983       37.48139       80.29881
C        -17.94658       36.98787       79.27891
O        -17.52725       37.78597       78.45204
C        -20.38463       37.00161       79.91548
H        -19.82306       39.45009       80.04161
H        -18.72395       37.09553       81.31260
H        -20.67570       37.41323       78.92562
H        -20.49019       35.90492       79.86047
H        -21.11384       37.36286       80.67299
N        -17.50218       35.69512       79.21026
C        -17.81815       34.63696       80.16689
C        -17.02420       34.74209       81.44908
O        -16.06699       35.49554       81.51903
C        -17.68931       33.24748       79.50356
C        -16.40280       32.85803       78.79125
O        -15.21010       33.50033       78.86862
O        -16.45804       31.87892       78.06418
H        -16.88210       35.45997       78.42091
H        -18.87851       34.71234       80.45843
H        -18.48007       33.23137       78.72210
H        -17.94454       32.44083       80.22663
N        -17.40750       34.00844       82.53136
C        -16.67440       33.96577       83.78429
C        -17.48203       34.50935       84.94529
O        -18.57184       35.02124       84.72777
H        -18.25872       33.42812       82.46363
H        -15.72842       34.53377       83.72760
H        -16.43603       32.89851       83.96528
N        -17.04100       34.41709       86.23639
C        -15.79055       33.75808       86.62232
C        -14.58074       34.66145       86.40310
O        -14.75674       35.82362       86.06343
C        -15.87074       33.23336       88.07735
C        -15.84635       34.30136       89.14817
N        -14.87259       34.29934       90.08941
O        -16.71559       35.15857       89.18462
H        -17.68200       34.74676       86.97367
H        -15.68261       32.84001       86.01061
H        -15.01837       32.54130       88.24487
H        -16.79851       32.62941       88.18747
H        -14.13628       33.57803       90.08941
H        -14.85770       35.01580       90.82986
N        -13.31465       34.18857       86.60601
C        -12.11792       35.01955       86.50727
C        -11.09064       34.52888       85.49452
O        -10.02710       35.12895       85.42985
H        -13.19251       33.20445       86.88969
H        -11.63300       35.01453       87.50883
H        -12.36983       36.07282       86.26622
N        -11.29667       33.43018       84.71305
C        -10.25181       32.83879       83.87302
C        -10.02093       33.60386       82.56789
O        -10.96027       33.78810       81.80851
C        -10.61571       31.36819       83.56358
C         -9.48523       30.64943       82.81838
O        -10.84892       30.69626       84.77636
H        -12.18622       32.91965       84.81045
H         -9.31212       32.79101       84.46929
H        -11.53982       31.35819       82.93980
H        -11.49195       29.96466       84.58583
H         -9.28121       31.13224       81.84102
H         -8.55621       30.66264       83.42904
H         -9.77233       29.59426       82.63101
N         -8.76369       34.00825       82.21713
C         -8.42332       34.61330       80.92277
C         -8.58057       33.59705       79.79037
O         -7.92638       32.56296       79.82408
C         -6.95102       35.15601       80.93369
C         -6.52057       35.66450       79.52326
C         -6.81914       36.27788       81.98432
C         -5.09151       36.20505       79.44702
H         -8.00482       33.84643       82.89608
H         -9.08653       35.48786       80.73937
H         -6.26485       34.32548       81.21516
H         -7.21265       36.45303       79.17212
H         -6.56745       34.82224       78.80079
H         -7.10943       35.92524       82.99395
H         -5.77037       36.62486       82.07031
H         -7.46503       37.14019       81.71363
H         -4.36666       35.43513       79.78499
H         -4.85702       36.47472       78.39530
H         -4.97447       37.12485       80.05415
N         -9.36645       33.88402       78.70948
C         -9.45119       33.06375       77.50266
C         -8.95119       33.82114       76.26527
O         -8.97127       33.23451       75.19342
C        -10.90378       32.60864       77.25354
C        -11.44810       31.76702       78.37231
O        -11.59391       32.28589       79.60309
O        -11.78811       30.61342       78.16333
H         -9.90295       34.75768       78.71879
H         -8.81733       32.15364       77.60272
H        -10.93127       32.00253       76.31967
H        -11.56060       33.49337       77.10917
N         -8.45704       35.09908       76.32953
C         -7.92557       35.81589       75.17345
C         -8.55579       37.21585       75.09478
O         -7.82812       38.19054       75.20976
C         -6.38803       35.91056       75.35778
C         -5.59132       36.53937       74.22652
C         -4.25381       36.88644       74.48663
C         -6.11723       36.79012       72.93995
C         -3.46449       37.48077       73.49858
C         -5.31695       37.37145       71.94989
C         -3.99447       37.72087       72.23019
H         -8.39021       35.57615       77.23684
H         -8.12446       35.25526       74.23662
H         -5.96642       34.89656       75.53360
H         -6.21212       36.50398       76.28216
H         -3.82560       36.71009       75.46593
H         -7.13414       36.53391       72.68145
H         -2.44082       37.75552       73.71790
H         -5.72302       37.55291       70.96283
H         -3.37985       38.17708       71.46471
N         -9.90008       37.41967       74.91302
C        -10.50809       38.74781       74.86643
C        -10.22937       39.60875       76.08485
O        -10.40769       40.81796       75.99887
C        -12.00901       38.45065       74.81302
C        -12.04092       37.15185       74.04347
C        -10.87345       36.38298       74.66766
H        -10.12866       39.24409       73.94471
H        -12.37273       38.20834       75.83983
H        -12.62820       39.27956       74.40704
H        -13.01250       36.61532       74.05726
H        -11.78021       37.39690       72.98784
H        -11.14186       35.91139       75.63766
H        -10.52732       35.62142       73.93654
N         -9.84105       39.05578       77.26939
C         -9.52073       39.84729       78.44316
C         -8.24648       40.61819       78.14352
O         -8.26049       41.83997       78.18535
C         -9.32165       38.97712       79.71404
C        -10.59315       38.40592       80.40152
C        -11.37184       37.27338       79.77089
O        -12.41810       36.75908       80.45480
O        -11.08247       36.80963       78.68607
H         -9.73462       38.03789       77.32513
H        -10.34721       40.56097       78.66390
H         -8.89464       39.66461       80.47927
H         -8.57523       38.17977       79.54419
H        -11.29849       39.24241       80.59262
H        -10.25797       38.01376       81.38592
N         -7.10615       39.95229       77.80358
C         -5.87728       40.63779       77.46794
H         -5.09245       39.89619       77.20427
H         -6.04026       41.30242       76.59263
H         -5.52556       41.23869       78.33251
H         -7.11215       38.92230       77.76307
Ca       -13.80656       35.06273       79.77986
O        -13.35669       35.59418       82.94676
H        -13.43863       34.91062       83.65622
H        -12.56239       36.12438       83.20589
O        -14.95926       37.68311       80.05756
H        -14.72540       37.67995       81.02046
H        -14.68254       38.57623       79.73704
O        -13.89289       32.23338       81.74571
H        -13.56849       31.35808       81.41488
H        -14.87882       32.17064       81.68436
O        -13.96315       35.53920       76.87649
H        -13.17140       35.95353       77.30162
H        -14.72476       36.08976       77.18816

Ca 1.0



