%chk=apoCaM-CA-Ng.loop3.water3.frame937.chk
%nprocshared=20
%mem=10GB
%nosave
#b3lyp/svp scf=(tight,noincore,xqc) Test 
#IOP(5/87=12) Density=Current Pop=(MK,readradii) iop(6/33=2) iop(6/42=6)

apoCaM-CA-Ng.loop3.water3.frame937 

   0  1 
C        -32.20934       -0.16040       67.06898
C        -33.60844        0.36403       66.94766
O        -34.54412       -0.30987       67.35527
H        -31.60862        0.54025       67.68920
H        -32.20018       -1.15778       67.55672
H        -31.74942       -0.23929       66.06277
N        -33.81620        1.60555       66.43364
C        -35.12999        2.23779       66.40919
C        -35.98869        1.67925       65.27395
O        -35.43531        1.17407       64.30686
C        -34.91970        3.77252       66.30702
C        -36.08394        4.63378       66.69495
O        -35.95112        5.97295       66.66701
O        -37.12146        4.14860       67.09973
H        -32.98626        2.15637       66.16051
H        -35.61295        2.02633       67.38244
H        -34.57246        4.03200       65.28366
H        -34.12091        4.06074       67.02461
N        -37.35171        1.75799       65.32254
C        -38.24446        1.34019       64.23731
C        -39.01401        2.52534       63.64667
O        -39.64893        2.34685       62.61644
C        -39.22971        0.24412       64.72484
C        -40.15516        0.74294       65.85210
C        -41.14195       -0.31744       66.34919
C        -42.00024        0.25736       67.49136
N        -42.94546       -0.73424       67.99954
H        -37.77430        2.14403       66.17106
H        -37.63916        0.91499       63.40723
H        -38.64696       -0.63005       65.08913
H        -39.85391       -0.09225       63.86791
H        -40.73072        1.62695       65.50123
H        -39.53179        1.03490       66.71091
H        -40.57915       -1.20134       66.72111
H        -41.80135       -0.63432       65.51260
H        -42.56267        1.14499       67.12416
H        -41.34397        0.58812       68.32642
H        -43.51389       -0.30083       68.76309
H        -43.58811       -1.04414       67.23563
H        -42.42826       -1.55647       68.38733
N        -39.03078        3.74789       64.25621
C        -39.73227        4.92284       63.75404
C        -38.79708        6.12235       63.56836
O        -39.27140        7.13958       63.08406
C        -40.91243        5.28268       64.69709
C        -40.56921        5.27051       66.17383
O        -41.25368        4.61286       66.93728
O        -39.48230        5.91942       66.63904
H        -38.54971        3.86569       65.15000
H        -40.16526        4.72156       62.74856
H        -41.72573        4.53876       64.54091
H        -41.32516        6.27086       64.40386
N        -37.46942        6.09283       63.89187
C        -36.56892        7.21936       63.67073
C        -36.83974        8.46191       64.51386
O        -36.13180        9.43768       64.30829
H        -37.04810        5.22787       64.25113
H        -36.61230        7.49546       62.59465
H        -35.52862        6.89571       63.89227
N        -37.81988        8.52278       65.46339
C        -38.13586        9.72617       66.23836
C        -38.04637        9.46922       67.73681
O        -37.88751        8.33236       68.13526
C        -39.59851       10.12552       65.93885
C        -39.86084       10.31447       64.46778
N        -40.75229        9.52372       63.82276
O        -39.26692       11.18693       63.85332
H        -38.39896        7.69723       65.62700
H        -37.44858       10.55709       65.96932
H        -39.86710       11.06020       66.47536
H        -40.26422        9.31709       66.32029
H        -41.25922        8.77782       64.32262
H        -40.93166        9.64630       62.81561
N        -38.21605       10.48374       68.63187
C        -38.51881       10.27925       70.04584
C        -37.57959        9.36859       70.81060
O        -36.41086        9.69601       70.95819
H        -38.26830       11.45106       68.27696
H        -39.54021        9.85120       70.09942
H        -38.55888       11.26602       70.55689
N        -38.05931        8.20027       71.34714
C        -37.27123        7.28993       72.17133
C        -36.94529        5.99940       71.37323
O        -36.59062        6.31819       70.05852
C        -38.07989        6.88113       73.43613
C        -38.53308        7.97373       74.36619
C        -39.90349        8.12712       74.64431
C        -37.60256        8.78607       75.03138
C        -40.33440        9.06839       75.58087
C        -38.03728        9.73109       75.96808
C        -39.40144        9.87051       76.25134
O        -39.80285       10.76637       77.17558
H        -39.03288        7.92880       71.14934
H        -36.30881        7.77167       72.45282
H        -37.49278        6.20120       74.07885
H        -38.96882        6.31015       73.09406
H        -40.64072        7.50036       74.15687
H        -36.54261        8.67060       74.84426
H        -41.39204        9.16074       75.79546
H        -37.31176       10.34302       76.48833
H        -40.73452       10.87326       77.41651
N        -35.86706        5.23629       72.04892
C        -35.44673        3.94077       71.46896
C        -36.60387        3.18252       70.84803
O        -37.12298        3.62713       69.83684
C        -34.25464        4.12329       70.48575
C        -33.77320        2.78329       69.86389
C        -33.08428        4.84868       71.17623
C        -33.27779        1.72596       70.85430
H        -36.17517        5.01561       73.01809
H        -35.05325        3.33037       72.31306
H        -34.58586        4.76407       69.63995
H        -32.95633        2.99564       69.13994
H        -34.60794        2.33318       69.29946
H        -32.24342        4.98924       70.46430
H        -33.39860        5.85313       71.52925
H        -32.71831        4.27677       72.05450
H        -34.08354        1.42422       71.55357
H        -32.96819        0.82079       70.28994
H        -32.40186        2.08881       71.42784
N        -37.06609        2.02375       71.39850
C        -38.16612        1.28740       70.79468
C        -38.64141        0.15310       71.66736
O        -37.88646       -0.78125       71.90323
C        -37.75274        0.71065       69.42531
O        -38.81368       -0.01688       68.86403
H        -36.64874        1.68135       72.27761
H        -39.01450        1.98535       70.66466
H        -36.84809        0.06791       69.55016
H        -37.47547        1.50925       68.71332
H        -38.55735       -0.97575       68.87095
N        -39.92789        0.14872       72.12180
C        -40.53803       -0.99830       72.77549
C        -41.78430       -1.42806       71.99486
O        -42.23327       -0.66590       71.14954
C        -40.91671       -0.61835       74.21200
H        -40.52231        0.97573       71.94991
H        -39.80458       -1.82766       72.79645
H        -41.36512       -1.47358       74.75449
H        -40.01203       -0.29550       74.76925
H        -41.64836        0.21911       74.21064
N        -42.44879       -2.60127       72.21333
C        -41.98598       -3.67821       73.07702
C        -42.85524       -3.78156       74.31396
O        -43.93341       -3.20419       74.33019
C        -41.97684       -4.98184       72.26346
H        -43.33306       -2.75451       71.70167
H        -40.96290       -3.46768       73.42500
H        -41.30154       -4.86805       71.38852
H        -41.63798       -5.85931       72.84480
H        -42.99964       -5.20577       71.89208
N        -42.42411       -4.38969       75.45790
C        -41.12275       -5.02565       75.63194
C        -40.16416       -4.04474       76.27540
O        -39.12232       -3.78241       75.68894
C        -41.29858       -6.34857       76.39767
C        -39.98713       -7.13985       76.51198
C        -40.22581       -8.48504       77.13630
O        -40.96402       -9.29218       76.59279
O        -39.61205       -8.81629       78.28771
H        -43.02900       -4.31306       76.29123
H        -40.67609       -5.29904       74.66058
H        -42.02993       -6.96390       75.82694
H        -41.71653       -6.15934       77.41076
H        -39.25844       -6.56618       77.12416
H        -39.55204       -7.30054       75.50154
N        -40.46861       -3.42006       77.44606
C        -39.61107       -2.41934       78.05246
H        -38.67197       -2.25751       77.48078
H        -40.15339       -1.45116       78.09626
H        -39.34353       -2.73323       79.08149
H        -41.36124       -3.63096       77.91512
Ca       -38.44889        5.88484       68.70264
O        -41.05491        7.43844       69.06422
H        -41.22389        8.29650       68.60068
H        -41.09700        7.66423       70.02693
O        -39.96696        4.97559       71.13708
H        -39.77595        4.23763       71.76885
H        -40.95443        5.02794       71.10089
O        -39.97660        3.25012       68.84745
H        -40.83266        3.03832       69.29648
H        -40.01338        2.74756       67.99957

Ca 1.0



