%chk=apoCaM-CA-Ng.loop3.water4.frame47.chk
%nprocshared=20
%mem=10GB
%nosave
#b3lyp/svp scf=(tight,noincore,xqc) Test 
#IOP(5/87=12) Density=Current Pop=(MK,readradii) iop(6/33=2) iop(6/42=6)

apoCaM-CA-Ng.loop3.water4.frame47 

   0  1 
C         47.89842       73.14229       32.50091
C         48.32151       74.10226       31.43021
O         47.96794       73.87659       30.28501
H         46.79030       73.09275       32.54301
H         48.29679       72.13313       32.26082
H         48.28466       73.44527       33.49584
N         49.08520       75.19646       31.73151
C         49.59077       76.16930       30.75975
C         50.68754       75.59948       29.85540
O         51.15787       76.33241       28.99681
C         48.44479       76.80542       29.92622
C         47.38261       77.47630       30.76065
O         47.45394       77.49656       32.10626
O         46.44085       78.01956       30.20600
H         49.32301       75.36508       32.72071
H         50.07829       76.99622       31.32314
H         47.95998       76.04630       29.27971
H         48.87536       77.57822       29.25294
N         51.16197       74.32338       29.98819
C         52.14513       73.73885       29.07703
C         51.46030       73.02120       27.92371
O         52.16211       72.53310       27.04652
C         53.02580       72.71421       29.83345
C         53.98027       73.30713       30.88133
C         55.07580       74.16117       30.22448
C         56.19653       74.50982       31.21054
N         57.24878       75.27599       30.54205
H         50.75763       73.70142       30.70018
H         52.77300       74.52977       28.61650
H         53.65395       72.14717       29.11139
H         52.35888       71.97419       30.33074
H         54.47090       72.44287       31.38170
H         53.43050       73.88595       31.65549
H         54.63579       75.09296       29.81079
H         55.53266       73.57981       29.39376
H         56.63644       73.56726       31.60841
H         55.78992       75.09602       32.06341
H         58.02531       75.45836       31.21756
H         57.63072       74.73401       29.73216
H         56.86747       76.18895       30.20360
N         50.10718       72.88408       27.86921
C         49.40278       72.12610       26.84947
C         48.32818       73.00625       26.21516
O         47.84751       73.92457       26.86885
C         48.82156       70.89223       27.57261
C         48.27044       69.79866       26.71105
O         47.81185       68.68415       27.30985
O         48.27249       69.87189       25.49391
H         49.53408       73.26709       28.62644
H         50.11377       71.77715       26.06818
H         48.04518       71.21846       28.29895
H         49.64901       70.41801       28.14657
N         47.91092       72.80420       24.93245
C         46.90914       73.63931       24.27738
C         45.50444       73.51978       24.84988
O         44.61836       74.19290       24.34324
H         48.34945       72.05805       24.37369
H         46.84282       73.34048       23.20875
H         47.23949       74.69910       24.31724
N         45.20935       72.66715       25.86860
C         43.86824       72.48619       26.41210
C         43.41286       73.74314       27.11001
O         42.31327       74.20483       26.83412
C         43.82536       71.29626       27.40879
C         44.06169       69.92752       26.73050
N         42.98783       69.62200       25.79120
O         45.28366       69.94374       26.05641
H         45.96637       72.10897       26.27416
H         43.15067       72.24205       25.59634
H         42.82266       71.25582       27.89089
H         44.57594       71.45049       28.21403
H         42.09454       69.52856       26.32649
H         43.18330       68.69093       25.36085
N         44.20200       74.34954       28.04288
C         43.73189       75.47069       28.83062
C         42.66700       74.95761       29.75399
O         41.51856       75.36174       29.64176
H         45.15154       73.98951       28.22160
H         43.35851       76.27684       28.16035
H         44.55824       75.88375       29.44811
N         43.00036       74.01766       30.68345
C         42.03319       73.35547       31.54398
C         42.13114       71.84155       31.35151
O         43.02823       71.36852       30.66730
C         42.27037       73.83722       32.99507
C         41.28770       73.31255       34.01632
C         39.90217       73.49597       33.84786
C         41.75248       72.64173       35.15982
C         39.00237       72.98789       34.78903
C         40.85135       72.14937       36.10735
C         39.47196       72.31485       35.92110
O         38.59133       71.83564       36.82230
H         43.99347       73.74979       30.77734
H         41.00796       73.65448       31.24084
H         42.17912       74.94530       32.99605
H         43.31257       73.58760       33.29413
H         39.51468       74.01195       32.97924
H         42.81389       72.50016       35.32187
H         37.93825       73.11742       34.63685
H         41.22725       71.63689       36.98381
H         38.87575       71.36878       37.62099
N         41.18163       71.02744       31.88557
C         41.12035       69.58205       31.70465
C         39.84917       69.27741       30.92536
O         39.93754       68.65504       29.87551
C         41.15515       68.86712       33.08709
C         42.44602       69.25676       33.85552
C         41.08597       67.33397       32.91365
C         42.48182       68.74896       35.29799
H         40.42485       71.45849       32.42277
H         41.99230       69.21439       31.11582
H         40.27185       69.20725       33.67241
H         42.52410       70.35946       33.91166
H         43.34029       68.88452       33.30879
H         41.98195       66.95949       32.37496
H         41.01303       66.82276       33.89421
H         40.19877       67.02534       32.33488
H         41.61043       69.14326       35.86260
H         42.48285       67.64224       35.34574
H         43.41132       69.10703       35.78878
N         38.63438       69.74663       31.34796
C         37.40712       69.55667       30.57968
C         36.89251       68.13023       30.66668
O         36.01271       67.77327       29.89608
C         36.30927       70.51755       31.06945
O         36.75968       71.84704       31.06369
H         38.58975       70.31477       32.20608
H         37.63065       69.81000       29.51829
H         36.03199       70.25318       32.11286
H         35.39402       70.42865       30.44283
H         37.01321       72.06631       30.12981
N         37.38921       67.26492       31.59621
C         37.01207       65.86830       31.73171
C         37.30393       65.10323       30.45591
O         36.50185       64.27300       30.04865
C         35.56052       65.72507       32.21118
H         38.09944       67.59862       32.25789
H         37.66325       65.43252       32.52248
H         34.84747       66.12703       31.46199
H         35.31903       64.65625       32.39320
H         35.42524       66.27900       33.16438
N         38.44508       65.36229       29.75529
C         38.82726       64.63375       28.55562
C         40.26340       64.16801       28.66337
O         40.97405       64.58730       29.56848
C         38.63915       65.52347       27.32709
H         39.06151       66.12523       30.07345
H         38.18061       63.73721       28.43353
H         38.90528       64.97319       26.39992
H         37.57291       65.82911       27.25404
H         39.26744       66.43628       27.40302
N         40.74712       63.24979       27.77913
C         42.10909       62.72461       27.80289
C         42.46102       62.00343       29.10383
O         43.61018       61.60787       29.25059
C         43.13829       63.83222       27.49763
C         42.81088       64.56315       26.18697
C         43.92688       65.45741       25.74855
O         45.08174       65.51215       26.44260
O         43.79984       66.11446       24.72835
H         40.11629       62.89292       27.04541
H         42.20792       61.98024       26.98135
H         44.13167       63.33987       27.39629
H         43.20582       64.57502       28.32273
H         41.89067       65.17214       26.32567
H         42.63882       63.82760       25.37318
N         41.54365       61.77724       30.08887
C         41.90059       61.14980       31.34062
H         42.64984       61.77535       31.87166
H         40.99990       61.05747       31.98448
H         42.31767       60.13822       31.15672
H         40.55857       62.04467       29.96879
Ca        45.91285       67.86681       25.41753
O         48.60100       67.72913       23.19750
H         48.63729       67.16695       22.38325
H         49.51300       67.67225       23.57863
O         45.18671       69.32120       23.02347
H         45.64742       69.61336       22.19801
H         44.49464       70.01055       23.18459
O         46.23015       65.76315       23.10517
H         45.70462       66.17342       22.37299
H         46.72665       65.02371       22.67362
O         48.52566       66.07906       26.03470
H         49.45077       66.41396       25.92235
H         48.53504       65.17701       25.62728

Ca 1.0



