%chk=apoCaM-CA-Ng.loop1.water4.frame1025.chk
%nprocshared=20
%mem=10GB
%nosave
#b3lyp/svp scf=(tight,noincore,xqc) Test 
#IOP(5/87=12) Density=Current Pop=(MK,readradii) iop(6/33=2) iop(6/42=6)

apoCaM-CA-Ng.loop1.water4.frame1025 

   0  1 
C         27.25861       27.31004       74.55816
C         27.39838       28.52257       75.43299
O         27.25928       29.63428       74.94279
H         27.03681       27.60107       73.50889
H         28.19995       26.72199       74.57439
H         26.42750       26.67507       74.93193
N         27.66345       28.37544       76.76111
C         27.77849       29.50559       77.68021
C         28.94797       30.39253       77.29573
O         30.07778       29.92152       77.28711
C         27.96069       29.01591       79.13108
C         26.77819       28.21238       79.59770
O         25.66780       28.71839       79.63805
O         26.94005       26.93174       79.98136
H         27.76019       27.41589       77.12963
H         26.83536       30.09465       77.63673
H         28.07405       29.89021       79.80818
H         28.88206       28.39608       79.20348
N         28.73969       31.69437       76.94299
C         29.82089       32.57262       76.51864
C         30.82334       32.87578       77.63682
O         32.00175       32.74884       77.33293
C         29.34348       33.85989       75.80486
C         28.44287       33.57768       74.59108
C         28.03926       34.89448       73.90855
C         27.13317       34.69518       72.68296
N         25.82005       34.15172       73.03876
H         27.77413       32.05422       76.93373
H         30.37581       32.04615       75.70636
H         30.24316       34.41405       75.45615
H         28.80078       34.53221       76.46294
H         27.53390       33.04403       74.93010
H         28.98550       32.93528       73.86367
H         28.96511       35.40993       73.57220
H         27.52005       35.55667       74.63421
H         27.63349       34.03120       71.94425
H         26.98401       35.68900       72.20560
H         25.90405       33.18636       73.42721
H         25.34785       34.77666       73.73234
H         25.22991       34.10362       72.17712
N         30.54387       33.23947       78.93610
C         29.24254       33.31408       79.61956
C         29.38825       33.11413       81.13267
O         30.49256       32.97549       81.64178
C         28.48711       34.64391       79.35467
C         29.22601       35.94236       79.68502
O         29.58582       36.05433       81.02999
O         30.37879       36.13431       78.92112
H         31.38157       33.36148       79.52611
H         28.61082       32.46332       79.30064
H         27.53279       34.66664       79.91457
H         28.15083       34.70368       78.32618
N         28.27318       33.09856       81.91682
C         28.28811       32.95260       83.35990
C         27.77995       34.21048       84.02386
O         27.57877       35.21764       83.35708
H         27.34592       33.20930       81.48192
H         29.30459       32.74056       83.75573
H         27.63079       32.09625       83.62265
N         27.54444       34.21400       85.36350
C         27.07627       35.39255       86.08801
C         25.73965       35.86521       85.51671
O         24.83046       35.04723       85.47780
C         26.87660       35.08561       87.59223
C         28.15723       34.74744       88.31141
O         28.80102       33.75460       88.01358
O         28.58515       35.53346       89.31787
H         27.69318       33.33176       85.87566
H         27.85700       36.16624       86.02681
H         26.14803       34.25583       87.72584
H         26.45255       35.99377       88.07618
N         25.47351       37.14350       85.09858
C         26.37532       38.28851       85.14177
C         26.23746       39.15082       83.90716
O         25.13218       39.59734       83.63229
H         24.49979       37.34239       84.81826
H         27.43088       38.02140       85.30296
H         26.06317       38.92774       85.99454
N         27.32697       39.48751       83.15515
C         27.26707       40.42693       82.03389
C         27.69319       39.75316       80.73429
O         28.33050       38.71252       80.77769
C         28.09925       41.68262       82.39854
C         28.05123       42.79379       81.34898
O         29.43973       41.33224       82.63219
H         28.24563       39.10222       83.41839
H         26.21576       40.75701       81.88497
H         27.65225       42.12038       83.32512
H         29.55360       41.22358       83.61296
H         28.51896       42.46537       80.39833
H         27.00102       43.10284       81.16211
H         28.61425       43.67731       81.71991
N         27.25224       40.25079       79.53794
C         27.42304       39.61799       78.22838
C         28.86017       39.62745       77.74089
O         29.74414       39.08357       78.38599
C         26.80316       38.19196       78.17494
C         25.30623       38.18859       78.57674
C         27.00366       37.53797       76.79147
C         24.38775       39.01964       77.67193
H         26.67626       41.10617       79.55612
H         26.84918       40.22818       77.50130
H         27.32498       37.54346       78.89959
H         25.20503       38.56597       79.61674
H         24.94384       37.13809       78.56922
H         26.55635       36.52236       76.77912
H         26.55301       38.14857       75.98216
H         28.08443       37.41846       76.56495
H         23.34260       38.92841       78.03194
H         24.65497       40.09541       77.69878
H         24.42068       38.65783       76.62423
N         29.12519       40.20154       76.53331
C         30.43137       40.25659       75.90108
C         30.90659       41.69481       75.78652
O         31.96402       41.89521       75.21185
C         30.40183       39.52815       74.52907
C         29.38477       40.10152       73.53061
O         30.12065       38.16867       74.74340
H         28.34762       40.64152       76.01946
H         31.19334       39.73580       76.52103
H         31.42194       39.62604       74.08523
H         30.53259       37.66373       73.99363
H         29.46768       39.55869       72.56477
H         28.34493       39.96863       73.89434
H         29.57543       41.17858       73.34389
N         30.21400       42.73323       76.35528
C         30.69371       44.11362       76.41261
C         31.98966       44.13757       77.21486
O         31.93746       44.23633       78.43213
C         29.60977       45.03350       77.05653
C         28.34331       45.12015       76.19603
O         29.24467       44.54995       78.32939
H         29.32292       42.53250       76.82614
H         30.88766       44.48817       75.38282
H         30.01719       46.07050       77.12877
H         29.56520       45.19837       79.00856
H         27.86791       44.12484       76.06759
H         27.60302       45.78891       76.68542
H         28.58386       45.53296       75.19444
N         33.18447       43.90768       76.59142
C         34.44841       43.64542       77.27521
C         34.36878       42.36746       78.10058
O         33.45607       42.20799       78.89650
C         34.95194       44.83432       78.10410
C         35.09830       46.08642       77.22808
C         35.87826       47.18157       77.95710
C         35.96538       48.45014       77.10034
N         36.79835       49.46038       77.75006
H         33.20231       43.86081       75.56226
H         35.22596       43.48268       76.49420
H         35.95400       44.54809       78.49600
H         34.29320       45.05197       78.97094
H         34.08646       46.44891       76.94220
H         35.65982       45.83382       76.30058
H         36.90542       46.80420       78.16094
H         35.38675       47.42381       78.92385
H         34.94030       48.85487       76.94489
H         36.40160       48.20825       76.10520
H         36.80057       50.32824       77.16727
H         36.42181       49.68641       78.69902
H         37.78010       49.10843       77.83432
N         35.32610       41.40860       77.97618
C         35.25488       40.13601       78.68243
C         34.15442       39.26039       78.08655
O         33.26140       38.89835       78.83744
C         36.63227       39.44122       78.72149
C         37.60892       40.22036       79.62047
C         38.97168       39.59379       79.61688
O         39.50032       39.11559       80.75931
O         39.61566       39.53286       78.58157
H         36.14096       41.59796       77.37283
H         34.99721       40.32078       79.75170
H         37.06081       39.35720       77.70773
H         36.52034       38.41991       79.14878
H         37.21159       40.22865       80.66048
H         37.70632       41.27198       79.27711
N         34.08496       38.87692       76.77611
C         35.02823       39.24046       75.74096
H         36.02358       38.80785       75.94265
H         34.69144       38.82206       74.76900
H         35.08422       40.34162       75.63049
H         33.28262       38.29606       76.48548
Ca        31.43329       37.29683       80.56743
O         31.17145       41.00053       80.40106
H         32.05183       40.58297       80.57029
H         31.26521       41.92075       80.75459
O         33.32888       35.19662       81.29227
H         33.68141       36.06066       81.62454
H         32.45091       35.09841       81.74015
O         33.61933       39.00982       82.10862
H         34.03499       39.90736       82.15163
H         33.88671       38.57024       82.95424
O         30.80924       38.34764       83.44195
H         31.39107       37.57681       83.65962
H         30.59212       38.75114       84.31963

Ca 1.0



