%chk=apoCaM-CA-Ng.loop2.water3.frame336.chk
%nprocshared=20
%mem=10GB
%nosave
#b3lyp/svp scf=(tight,noincore,xqc) Test 
#IOP(5/87=12) Density=Current Pop=(MK,readradii) iop(6/33=2) iop(6/42=6)

apoCaM-CA-Ng.loop2.water3.frame336 

   -2  1 
C         66.89060       93.19251       58.67664
C         67.07812       94.65835       58.92277
O         67.04364       95.07884       60.06969
H         65.99567       93.04381       58.03482
H         67.78248       92.77428       58.16801
H         66.72792       92.65178       59.63386
N         67.28944       95.50603       57.87829
C         67.34967       96.95388       58.04072
C         65.94516       97.44947       58.34475
O         65.05921       97.22010       57.53098
C         67.90050       97.60369       56.75099
C         68.11572       99.09279       56.85432
O         67.83278       99.76755       57.98605
O         68.57347       99.69792       55.89842
H         67.38491       95.10253       56.93284
H         68.06464       97.19760       58.85869
H         67.21814       97.39225       55.89886
H         68.88789       97.14358       56.52571
N         65.65240       98.11180       59.50189
C         64.28609       98.52451       59.82353
C         63.36203       97.33115       60.05647
O         62.15706       97.53002       60.12055
C         64.26850       99.40843       61.07490
H         66.41751       98.32827       60.15928
H         63.90238       99.12643       58.96925
H         63.23510       99.75507       61.29202
H         64.64666       98.84073       61.95297
H         64.91067      100.30086       60.92025
N         63.86201       96.07364       60.24781
C         63.07103       94.87858       60.50831
C         62.25916       95.08312       61.78557
O         61.04060       94.97798       61.77644
C         62.25879       94.52242       59.24215
C         61.61539       93.16571       59.28072
O         60.97402       92.78594       58.31463
O         61.75847       92.35082       60.34424
H         64.87510       95.94377       60.25408
H         63.78581       94.04191       60.68470
H         62.95685       94.51776       58.37413
H         61.48223       95.29256       59.05369
N         62.91420       95.47402       62.91697
C         62.26265       95.93670       64.13416
C         61.80205       94.86564       65.10491
O         61.38161       95.24200       66.19027
H         63.93484       95.61245       62.85622
H         61.43244       96.63230       63.88071
H         63.01600       96.53128       64.69450
N         61.83782       93.53403       64.82334
C         61.42221       92.52075       65.79414
C         62.45892       92.35823       66.90482
O         63.61354       92.09264       66.60301
C         61.22354       91.16759       65.09093
C         60.80173       90.10718       66.07608
N         61.58948       89.03287       66.29924
O         59.75398       90.23109       66.69406
H         62.13289       93.23086       63.88362
H         60.42905       92.80047       66.21528
H         62.16920       90.87165       64.59324
H         60.44056       91.26276       64.30785
H         62.48148       88.91159       65.80258
H         61.31444       88.32449       66.98517
N         62.09704       92.44274       68.21799
C         63.01945       92.20449       69.32177
C         63.48063       90.75963       69.37669
O         62.63754       89.88335       69.50569
H         61.12022       92.67613       68.45299
H         62.49414       92.40925       70.28055
H         63.87703       92.90592       69.24966
N         64.80855       90.44154       69.30012
C         65.31752       89.06785       69.37500
C         65.90621       88.61052       68.05018
O         66.33887       87.46616       67.97541
C         66.36126       88.91417       70.51564
C         67.68221       89.66791       70.26939
O         65.80201       89.27506       71.75336
H         65.48744       91.20520       69.16828
H         64.48360       88.36728       69.59952
H         66.63187       87.83645       70.58285
H         65.71872       90.26397       71.77164
H         67.51985       90.76207       70.19913
H         68.38685       89.46767       71.10410
H         68.16388       89.31739       69.33221
N         65.92568       89.42052       66.95476
C         66.41933       89.00155       65.65526
C         65.22376       88.92741       64.73636
O         64.57005       89.94865       64.56243
C         67.44690       90.03228       65.08533
C         68.59127       90.40710       66.05851
C         68.01075       89.55643       63.73137
C         69.51074       89.25769       66.46425
H         65.52446       90.36684       67.01015
H         66.90686       88.00307       65.71707
H         66.90557       90.98816       64.90062
H         68.15610       90.85316       66.97838
H         69.21367       91.19502       65.57759
H         68.70043       90.31683       63.30845
H         68.55223       88.59349       63.83652
H         67.19734       89.40651       62.99629
H         70.01881       88.81989       65.58146
H         70.29496       89.65167       67.14546
H         68.94212       88.47121       66.99884
N         64.90302       87.78286       64.06851
C         63.86737       87.77011       63.04306
C         62.91701       86.56992       63.15036
O         62.11294       86.38242       62.24902
C         64.59687       87.94185       61.69229
C         63.71859       88.45890       60.59283
O         62.97847       89.56667       60.78985
O         63.76933       87.96518       59.48277
H         65.51430       86.95620       64.16790
H         63.22560       88.67134       63.14796
H         65.16666       87.03242       61.40504
H         65.33295       88.76151       61.82720
N         62.88423       85.77042       64.26377
C         61.93120       84.66943       64.44449
C         62.20504       83.51667       63.48598
O         63.35853       83.12128       63.36497
C         61.98184       84.11154       65.88573
C         61.44646       85.07530       66.92223
C         62.26996       85.54202       67.96039
C         60.09846       85.48471       66.88271
C         61.75522       86.39981       68.93967
C         59.58804       86.34098       67.86368
C         60.41494       86.79620       68.89385
H         63.51805       85.98574       65.04684
H         60.90571       85.05810       64.28605
H         63.02358       83.79996       66.11921
H         61.34114       83.20332       65.95047
H         63.30742       85.23903       68.01597
H         59.43633       85.13323       66.10122
H         62.39480       86.75659       69.73585
H         58.55081       86.64992       67.82630
H         60.01905       87.46067       69.65111
N         61.19332       82.86806       62.82221
C         61.37195       81.75193       61.90109
C         62.36504       82.05106       60.80634
O         63.22801       81.23194       60.53144
C         59.97815       81.56801       61.28455
C         59.08589       81.92445       62.44421
C         59.78220       83.16551       62.99661
H         61.66989       80.84484       62.47518
H         59.79230       82.34296       60.50503
H         59.80656       80.56854       60.83072
H         58.01203       82.06535       62.19955
H         59.17786       81.10310       63.19251
H         59.53876       84.08546       62.42148
H         59.48407       83.27013       64.06182
N         62.30487       83.25072       60.16650
C         63.21750       83.65039       59.10670
C         64.65409       83.53259       59.58200
O         65.43993       82.85242       58.93573
C         62.96510       85.11030       58.69961
C         61.55742       85.43540       58.17003
C         61.51767       86.89656       57.83476
O         62.23536       87.34212       56.95295
O         60.78176       87.74311       58.57562
H         61.59440       83.92183       60.48822
H         63.06499       83.00129       58.21634
H         63.71218       85.38851       57.92258
H         63.12929       85.72774       59.60230
H         60.79484       85.23444       58.95043
H         61.31016       84.83473       57.27017
N         65.06175       84.15767       60.72113
C         66.41905       84.06616       61.20891
H         67.11776       84.50499       60.46569
H         66.51557       84.62531       62.16405
H         66.68614       83.00331       61.39037
H         64.38362       84.70430       61.27263
Ca        61.28762       89.92638       58.34974
O         58.90011       90.58900       59.67712
H         58.96043       91.08226       60.53302
H         57.97145       90.72823       59.36568
O         63.75293       90.39089       56.66021
H         64.73342       90.29146       56.56684
H         63.48099       90.93652       55.87994
O         59.64981       89.92750       55.97869
H         59.82975       90.83080       55.61564
H         60.42671       89.38518       55.69006

Ca 1.0



