%chk=apoCaM-CA-Ng.loop1.water3.frame710.chk
%nprocshared=20
%mem=10GB
%nosave
#b3lyp/svp scf=(tight,noincore,xqc) Test 
#IOP(5/87=12) Density=Current Pop=(MK,readradii) iop(6/33=2) iop(6/42=6)

apoCaM-CA-Ng.loop1.water3.frame710 

   0  1 
C         80.21175       23.66584      -17.10704
C         81.53553       24.17741      -17.59010
O         81.60792       24.70829      -18.68925
H         79.41798       23.84506      -17.86278
H         80.28281       22.57584      -16.90959
H         79.93515       24.18874      -16.16704
N         82.63417       24.05236      -16.79606
C         83.95957       24.53332      -17.16816
C         84.95714       23.37597      -17.20889
O         85.21355       22.75475      -16.18844
C         84.41537       25.68566      -16.23633
C         84.50065       25.38041      -14.75712
O         84.08014       24.20544      -14.25221
O         85.03125       26.19043      -14.01422
H         82.50817       23.59173      -15.88469
H         83.92574       24.97848      -18.18654
H         83.73747       26.55673      -16.36479
H         85.42794       25.99365      -16.58074
N         85.53802       23.01097      -18.38830
C         86.47735       21.89737      -18.51113
C         87.79906       22.23752      -17.84103
O         88.35190       23.28411      -18.15268
C         86.73518       21.58661      -20.00402
C         87.44435       20.23284      -20.19368
C         87.71427       19.95781      -21.68128
C         88.28841       18.55482      -21.94954
N         87.31135       17.49529      -21.68103
H         85.26574       23.51886      -19.24428
H         86.00881       20.98865      -18.07037
H         87.31274       22.41390      -20.47377
H         85.75597       21.51086      -20.52695
H         86.77704       19.45293      -19.77249
H         88.41006       20.20739      -19.64347
H         88.44756       20.71412      -22.03783
H         86.78134       20.07419      -22.27431
H         89.20929       18.39050      -21.34937
H         88.57072       18.50133      -23.02414
H         87.72388       16.57388      -21.95245
H         87.06445       17.45379      -20.66781
H         86.44764       17.65208      -22.25080
N         88.40935       21.36940      -16.97992
C         89.73445       21.64773      -16.40751
C         90.40568       20.40275      -15.82665
O         89.71600       19.41354      -15.62397
C         89.63860       22.78505      -15.36484
C         88.61720       22.48576      -14.31029
O         87.50934       23.23562      -14.30764
O         88.74507       21.55739      -13.52812
H         87.95177       20.46244      -16.81187
H         90.35079       21.96421      -17.24715
H         89.31847       23.70748      -15.89245
H         90.59509       23.02781      -14.87826
N         91.73926       20.32635      -15.50676
C         92.78433       21.33353      -15.69286
C         93.21659       21.53490      -17.13779
O         92.44065       21.99986      -17.95342
H         92.05205       19.45192      -15.05737
H         93.67782       20.97900      -15.13423
H         92.51901       22.29465      -15.22724
N         94.48916       21.23460      -17.52075
C         94.98234       21.43086      -18.87858
C         95.34081       20.07882      -19.44340
O         96.15182       19.37936      -18.84987
C         96.18672       22.39383      -18.85624
C         96.71592       22.75818      -20.22268
O         97.75403       23.60990      -20.31904
O         96.21315       22.31236      -21.24267
H         95.14307       20.84251      -16.82535
H         94.20174       21.89803      -19.51939
H         97.00993       21.94915      -18.25662
H         95.86919       23.33887      -18.36437
N         94.75197       19.62831      -20.58632
C         95.00799       18.30061      -21.10624
C         94.38244       17.20937      -20.25560
O         94.61977       16.05080      -20.56162
H         94.10904       20.24319      -21.10901
H         96.10573       18.15301      -21.19852
H         94.56673       18.20813      -22.12307
N         93.50830       17.48949      -19.23745
C         92.78420       16.45196      -18.50622
C         92.84151       16.66065      -16.99412
O         93.36565       17.66122      -16.52780
C         91.30381       16.43847      -18.99397
C         90.53893       17.73124      -18.67108
O         91.25887       16.23080      -20.38197
H         93.25711       18.46718      -19.03969
H         93.21608       15.45227      -18.72729
H         90.74859       15.61615      -18.49139
H         91.39305       15.25891      -20.53324
H         90.53046       17.91600      -17.57890
H         90.98483       18.60900      -19.18281
H         89.48452       17.63717      -19.00602
N         92.22511       15.75493      -16.17847
C         91.92190       16.00126      -14.76638
C         93.10433       15.67306      -13.85031
O         93.02863       16.00388      -12.67487
C         90.60772       15.22047      -14.39482
C         89.43529       15.67635      -15.31888
C         90.19246       15.39248      -12.91836
C         88.21179       14.75960      -15.26117
H         91.80132       14.93003      -16.62697
H         91.69648       17.08403      -14.64377
H         90.80472       14.14008      -14.57514
H         89.74245       15.66258      -16.38016
H         89.14318       16.72172      -15.07906
H         90.95363       14.98206      -12.22915
H         90.01689       16.46465      -12.68526
H         89.27145       14.82325      -12.68895
H         88.50288       13.72682      -15.55154
H         87.74354       14.74287      -14.25919
H         87.44995       15.12109      -15.98422
N         94.23588       15.05668      -14.30102
C         95.37457       14.74298      -13.43712
C         95.66163       13.25241      -13.45395
O         95.74699       12.67283      -14.52753
C         96.63059       15.56050      -13.83474
C         97.15217       15.31860      -15.25804
O         96.40234       16.93273      -13.63052
H         94.30686       14.79679      -15.29517
H         95.17170       15.03842      -12.38338
H         97.44555       15.26272      -13.13690
H         95.69856       17.22275      -14.26708
H         98.06725       15.92635      -15.41849
H         97.42882       14.25597      -15.40809
H         96.39623       15.61395      -16.01410
N         95.85435       12.57579      -12.28423
C         96.20584       11.15844      -12.21068
C         96.23334       10.71935      -10.75176
O         95.45336        9.85152      -10.38543
C         97.55611       10.86323      -12.94293
C         97.93466        9.37071      -12.91417
O         98.59908       11.68059      -12.46223
H         95.75935       13.10176      -11.40074
H         95.40828       10.57283      -12.72214
H         97.44526       11.10094      -14.01859
H         99.13627       11.17391      -11.79900
H         98.86875        9.21331      -13.49585
H         98.10582        9.02057      -11.87434
H         97.12819        8.76110      -13.37296
N         97.10730       11.27986       -9.86673
C         97.19412       10.90944       -8.46080
C         97.03910       12.16998       -7.63400
O         97.76669       13.12289       -7.88364
C         98.54146       10.20026       -8.22412
C         98.59277        9.47176       -6.87084
C         99.85158        8.59610       -6.77203
C         99.81717        7.70020       -5.52575
N        100.98323        6.81696       -5.48512
H         97.76112       12.00062      -10.20224
H         96.39474       10.18031       -8.20350
H         99.39635       10.90199       -8.34476
H         98.63026        9.41602       -9.00905
H         97.70736        8.80072       -6.81069
H         98.54832       10.19394       -6.02681
H        100.75927        9.23817       -6.76186
H         99.89714        7.93109       -7.66271
H         98.89691        7.07360       -5.55213
H         99.78915        8.32634       -4.60731
H        100.91692        6.19861       -4.64452
H        101.00848        6.21431       -6.34042
H        101.86154        7.38099       -5.42623
N         96.10022       12.27020       -6.65003
C         95.85263       13.53139       -5.96271
C         95.04272       14.46545       -6.86323
O         95.55848       15.52994       -7.17237
C         95.25345       13.31871       -4.55577
C         95.05779       14.66141       -3.82119
C         94.57142       14.50731       -2.40552
O         94.36389       15.60844       -1.65867
O         94.36693       13.40585       -1.91932
H         95.54171       11.44060       -6.39922
H         96.83716       14.01146       -5.75181
H         95.97072       12.69627       -3.97603
H         94.29887       12.76759       -4.58567
H         94.31824       15.28054       -4.37311
H         96.02495       15.20895       -3.79134
N         93.79846       14.18449       -7.35908
C         93.04836       12.96846       -7.12236
H         92.08878       13.00808       -7.68067
H         93.60789       12.08392       -7.48465
H         92.78371       12.86484       -6.05583
H         93.35293       14.88680       -7.97044
Ca        85.62807       23.07144      -13.12660
O         86.35875       24.05870      -10.39343
H         85.75882       24.66546      -10.89662
H         87.13651       23.92449      -10.99201
O         86.06482       20.15681      -11.68452
H         86.99898       20.11368      -11.35911
H         85.59757       20.72836      -11.02467
O         86.18893       19.81147      -14.81724
H         86.05000       19.30232      -15.65500
H         87.02534       19.44074      -14.43840

Ca 1.0



