%chk=apoCaM-CA-Ng.loop2.water3.frame579.chk
%nprocshared=20
%mem=10GB
%nosave
#b3lyp/svp scf=(tight,noincore,xqc) Test 
#IOP(5/87=12) Density=Current Pop=(MK,readradii) iop(6/33=2) iop(6/42=6)

apoCaM-CA-Ng.loop2.water3.frame579 

   -2  1 
C         64.67988       12.33376       93.04650
C         63.91961       12.93627       94.19632
O         64.45580       13.03182       95.29064
H         65.70023       12.02442       93.35834
H         64.14133       11.43728       92.66970
H         64.76588       13.07196       92.22170
N         62.63498       13.34535       94.01316
C         61.79779       13.89479       95.07740
C         62.31248       15.24550       95.55187
O         62.46180       16.13617       94.72628
C         60.35519       14.08604       94.55379
C         59.37297       14.50515       95.62215
O         59.73617       14.59506       96.91708
O         58.21876       14.74784       95.31171
H         62.22336       13.21629       93.07459
H         61.75796       13.15978       95.91206
H         59.98621       13.13197       94.11924
H         60.36314       14.85174       93.74608
N         62.51110       15.50146       96.88089
C         62.84905       16.84239       97.36619
C         64.24466       17.23335       96.90029
O         64.95364       16.32915       96.48291
C         62.76570       16.88836       98.89330
H         62.33984       14.74528       97.56105
H         62.07252       17.51712       96.96467
H         62.88441       17.91891       99.27363
H         61.76959       16.52575       99.22428
H         63.55124       16.24382       99.34134
N         64.77044       18.50026       96.91654
C         64.13304       19.75064       97.35444
C         62.83848       20.07199       96.62432
O         62.50192       19.41816       95.64918
C         65.13269       20.93274       97.21204
C         65.78586       20.97939       95.85491
O         67.12536       20.87597       95.74751
O         65.10847       21.05184       94.84806
H         65.74206       18.56674       96.57878
H         63.87082       19.66220       98.42469
H         65.94120       20.81012       97.96242
H         64.63026       21.90321       97.41420
N         62.02277       21.06396       97.09529
C         60.70915       21.31789       96.52769
C         59.80329       20.11608       96.73792
O         60.08828       19.30863       97.61155
H         62.31819       21.62685       97.90735
H         60.83002       21.55819       95.45359
H         60.23392       22.19400       97.02426
N         58.68414       19.89618       95.99420
C         58.25161       20.73549       94.88643
C         58.97931       20.36177       93.59170
O         58.66943       20.93804       92.55785
C         56.71855       20.57962       94.73852
C         56.07939       21.65289       93.89418
N         56.12677       22.94935       94.28559
O         55.48109       21.34847       92.87362
H         58.13059       19.04948       96.20444
H         58.45158       21.79700       95.14194
H         56.24846       20.66332       95.74238
H         56.48833       19.56620       94.33915
H         56.60332       23.22063       95.15860
H         55.66749       23.68479       93.72895
N         59.95399       19.39959       93.56579
C         60.60752       18.95823       92.34844
C         61.35574       20.04128       91.61716
O         61.58538       19.86112       90.42942
H         60.23426       18.91474       94.42759
H         59.84187       18.52840       91.67033
H         61.33602       18.14809       92.58039
N         61.83553       21.15387       92.24624
C         62.65349       22.13592       91.53895
C         63.85734       21.39802       90.88596
O         64.48665       20.50648       91.76672
C         63.02752       23.34050       92.45619
C         61.79250       24.18757       92.79864
O         63.62310       22.90881       93.64996
H         61.66443       21.27382       93.25555
H         62.06813       22.56028       90.69598
H         63.70973       24.02896       91.90259
H         64.59047       23.11917       93.59141
H         62.08536       25.06777       93.41182
H         61.32279       24.56710       91.86536
H         61.03793       23.60213       93.36461
N         64.78840       22.27645       90.17699
C         65.72934       21.58393       89.26684
C         67.03041       22.35304       89.35479
O         67.03217       23.54351       89.07162
C         65.24094       21.54942       87.77031
C         66.36148       21.02409       86.81967
C         63.97287       20.68696       87.60628
C         66.09917       21.30746       85.33890
H         64.25681       23.00686       89.64751
H         65.90964       20.53836       89.60179
H         65.01180       22.59537       87.47048
H         66.52887       19.94139       86.98716
H         67.31715       21.54434       87.02218
H         64.18429       19.62905       87.87772
H         63.14609       21.06004       88.24157
H         63.60790       20.70444       86.55866
H         66.96291       20.94677       84.73902
H         65.18578       20.80791       84.96471
H         66.01065       22.40491       85.18176
N         68.18558       21.72265       89.71051
C         69.47213       22.39655       89.81144
C         70.48528       21.87793       88.80632
O         71.59182       22.40072       88.83505
C         70.06277       22.17427       91.22019
C         69.13975       22.62491       92.30233
O         68.79636       23.79211       92.38841
O         68.60468       21.70909       93.12195
H         68.15616       20.72158       89.93208
H         69.35387       23.48765       89.63165
H         71.02946       22.70959       91.33014
H         70.25196       21.08642       91.35337
N         70.22934       20.87353       87.90493
C         71.28116       20.34623       87.03596
C         71.38294       18.81867       87.18000
O         71.34871       18.13211       86.16693
C         70.98407       20.78292       85.57710
C         72.13777       20.73476       84.58586
C         71.85289       21.02722       83.23901
C         73.47811       20.46712       84.94660
C         72.87094       21.05340       82.28079
C         74.49345       20.51084       83.98592
C         74.19124       20.80239       82.65549
H         69.28670       20.46733       87.82693
H         72.24290       20.79343       87.34427
H         70.65924       21.84657       85.58711
H         70.12276       20.18552       85.20133
H         70.83653       21.23831       82.92927
H         73.77034       20.24752       85.96087
H         72.63721       21.27827       81.24810
H         75.51971       20.32557       84.27664
H         74.98111       20.83713       81.91607
N         71.47639       18.19243       88.40131
C         71.52945       16.74005       88.59357
C         70.32676       15.95026       88.07610
O         70.34053       14.73194       88.18690
C         71.54285       16.57952       90.12112
C         72.22388       17.84445       90.57906
C         71.59036       18.88553       89.66501
H         72.47297       16.37969       88.12542
H         70.49650       16.64888       90.50367
H         71.98243       15.62664       90.48637
H         72.12247       18.06546       91.66311
H         73.30253       17.75701       90.32079
H         70.56712       19.15534       90.00546
H         72.25467       19.77330       89.62706
N         69.23680       16.57176       87.54770
C         68.05789       15.88501       87.05366
C         68.27303       15.58817       85.58772
O         68.07675       14.45288       85.17733
C         66.77294       16.73427       87.24541
C         66.32173       16.95076       88.71227
C         67.12096       17.91779       89.54242
O         66.76856       18.13802       90.82268
O         68.04731       18.54525       89.07163
H         69.25619       17.58391       87.41269
H         67.89279       14.92586       87.59648
H         65.94976       16.15908       86.76644
H         66.84898       17.70266       86.71028
H         66.29348       15.96877       89.22892
H         65.28838       17.35962       88.69334
N         68.75690       16.55421       84.75531
C         69.06455       16.32566       83.36129
H         70.16809       16.31512       83.23439
H         68.65127       15.36433       82.99208
H         68.64353       17.15187       82.75264
H         68.98899       17.48250       85.13664
Ca        66.57242       21.08752       92.43362
O         64.51963       18.26875       93.48725
H         63.99452       17.50396       93.14639
H         63.84364       18.96645       93.66632
O         69.35731       18.58404       92.86637
H         69.36573       17.65313       92.52853
H         69.57170       18.50010       93.82999
O         67.24488       17.52512       94.46048
H         66.44673       17.08186       94.82685
H         67.85874       16.77281       94.27477

Ca 1.0



