%chk=apoCaM-CA-Ng.loop1.water3.frame1109.chk
%nprocshared=20
%mem=10GB
%nosave
#b3lyp/svp scf=(tight,noincore,xqc) Test 
#IOP(5/87=12) Density=Current Pop=(MK,readradii) iop(6/33=2) iop(6/42=6)

apoCaM-CA-Ng.loop1.water3.frame1109 

   0  1 
C         55.76820       -9.08191       81.38755
C         55.15089      -10.39295       81.00961
O         55.76634      -11.14474       80.26664
H         56.76512       -8.96644       80.90983
H         55.11293       -8.25321       81.04587
H         55.88843       -9.02854       82.48896
N         53.91332      -10.72510       81.47739
C         53.23266      -11.96217       81.10907
C         51.99194      -11.64628       80.29497
O         50.91829      -12.16517       80.56973
C         52.96285      -12.83546       82.35981
C         52.05785      -12.22852       83.40908
O         51.54940      -11.12818       83.26208
O         51.79925      -12.92501       84.53176
H         53.42863      -10.05227       82.08918
H         53.88253      -12.56233       80.43610
H         53.93968      -13.05953       82.83988
H         52.51375      -13.79914       82.03581
N         52.08771      -10.77441       79.25308
C         50.97029      -10.45489       78.37579
C         50.62835      -11.66916       77.52530
O         49.48959      -12.10751       77.61271
C         51.24130       -9.17529       77.54685
C         51.39292       -7.96142       78.48202
C         51.75278       -6.68808       77.71505
C         51.86424       -5.49830       78.67893
N         52.27908       -4.28794       77.97303
H         52.99324      -10.30985       79.09019
H         50.08155      -10.20288       79.00027
H         50.38102       -8.98839       76.86717
H         52.14516       -9.26275       76.91914
H         52.19955       -8.14856       79.22301
H         50.43869       -7.81052       79.03427
H         50.97634       -6.47291       76.94925
H         52.72935       -6.84194       77.20523
H         52.60976       -5.72650       79.47365
H         50.87798       -5.32443       79.16513
H         51.59073       -4.05357       77.22170
H         52.32491       -3.49533       78.65345
H         53.22741       -4.42826       77.55437
N         51.51693      -12.33693       76.72554
C         52.92520      -12.00214       76.50659
C         53.83244      -13.02062       77.17658
O         53.33796      -13.93382       77.82116
C         53.18660      -11.82584       74.99389
C         52.85208      -13.04598       74.18125
O         53.50087      -14.20451       74.39433
O         51.99240      -12.98638       73.31666
H         51.16776      -13.18715       76.25486
H         53.19967      -11.05631       76.98418
H         54.24755      -11.55776       74.81259
H         52.56601      -10.97457       74.63562
N         55.19088      -12.87521       77.12357
C         56.11638      -13.73719       77.84620
C         56.04251      -15.18846       77.42912
O         55.28239      -15.52807       76.53291
H         55.59101      -12.08569       76.59685
H         55.88144      -13.67001       78.93125
H         57.15568      -13.37398       77.69551
N         56.80264      -16.11757       78.08069
C         56.67503      -17.56085       77.84688
C         57.71541      -18.30696       78.69125
O         57.83217      -17.95831       79.85953
C         55.25279      -18.01563       78.28656
C         54.73710      -19.25454       77.60355
O         55.32227      -19.75320       76.65889
O         53.54260      -19.75419       77.96778
H         57.46400      -15.77208       78.79515
H         56.81600      -17.73654       76.76384
H         54.49785      -17.24765       78.05055
H         55.22831      -18.13868       79.39127
N         58.50889      -19.33428       78.26350
C         58.46229      -20.03146       76.99000
C         58.80890      -19.16270       75.82322
O         59.85794      -18.53462       75.86819
H         59.18568      -19.71211       78.94655
H         57.49462      -20.53971       76.86076
H         59.22570      -20.83968       77.01985
N         58.01277      -19.13236       74.70728
C         58.37504      -18.35885       73.52665
C         57.26839      -17.34814       73.10313
O         56.57420      -16.84992       74.22137
C         58.77971      -19.28281       72.35193
C         57.62135      -20.13070       71.81664
O         59.82213      -20.12518       72.77333
H         57.15874      -19.70834       74.67861
H         59.28570      -17.77428       73.77527
H         59.14580      -18.63093       71.52384
H         60.28104      -20.45172       71.95540
H         57.97525      -20.75331       70.96778
H         57.21846      -20.80409       72.60063
H         56.81410      -19.47501       71.43784
N         57.90619      -16.28867       72.26732
C         57.32370      -14.94012       72.15456
C         55.98460      -15.01622       71.46066
O         55.07709      -15.65667       71.95862
C         57.32501      -14.11910       73.49310
C         58.72404      -14.07133       74.17892
C         56.79437      -12.69303       73.26560
C         59.84406      -13.42649       73.34840
H         58.93052      -16.18108       72.44522
H         57.99361      -14.37394       71.47193
H         56.62881      -14.56870       74.22300
H         59.04019      -15.10046       74.45162
H         58.63710      -13.50514       75.13209
H         57.40995      -12.14370       72.52441
H         55.74952      -12.72360       72.89363
H         56.79438      -12.12892       74.22319
H         60.02808      -13.98430       72.40813
H         59.61022      -12.36984       73.10725
H         60.78867      -13.43707       73.93263
N         55.78549      -14.35373       70.29021
C         54.49917      -14.36271       69.60667
C         54.19118      -15.69098       68.91240
O         53.06867      -15.84300       68.45001
C         54.41063      -13.18565       68.59801
C         55.38914      -13.31922       67.42092
O         54.66835      -11.97146       69.25718
H         56.54734      -13.76022       69.93233
H         53.71693      -14.17344       70.37439
H         53.38598      -13.15212       68.16185
H         53.90453      -11.80437       69.86914
H         55.26439      -12.45379       66.73676
H         56.44533      -13.33364       67.75901
H         55.18892      -14.24645       66.84492
N         55.14151      -16.65639       68.71670
C         54.87890      -17.84651       67.90445
C         53.90141      -18.79377       68.57499
O         54.24015      -19.36731       69.59958
C         56.17555      -18.63024       67.55137
C         57.13927      -17.82177       66.67175
O         56.82679      -19.11954       68.70019
H         56.09620      -16.48808       69.06102
H         54.44822      -17.50602       66.93595
H         55.87910      -19.51275       66.94064
H         57.33235      -18.37595       69.11875
H         58.01501      -18.45194       66.40658
H         56.63071      -17.51674       65.73267
H         57.50104      -16.91373       67.19626
N         52.67707      -19.03725       68.01847
C         51.74301      -20.04969       68.50599
C         51.44827      -19.84250       69.97826
O         51.71050      -20.73202       70.77818
C         52.30074      -21.46790       68.23673
C         52.57645      -21.71676       66.74771
C         53.13169      -23.13296       66.53732
C         53.50173      -23.43022       65.07528
N         52.33811      -23.41339       64.18733
H         52.39484      -18.50028       67.18440
H         50.78852      -19.95879       67.94015
H         51.55650      -22.21707       68.58888
H         53.24265      -21.61762       68.80783
H         53.32414      -20.98080       66.37980
H         51.62988      -21.58419       66.18284
H         52.39457      -23.88568       66.89342
H         54.05746      -23.24011       67.14461
H         53.96273      -24.44217       65.03900
H         54.25917      -22.69682       64.71981
H         51.61632      -24.09024       64.52615
H         51.93011      -22.45400       64.12690
H         52.64194      -23.69801       63.22829
N         50.92656      -18.66417       70.41136
C         50.73534      -18.36667       71.82265
C         51.68080      -17.18647       72.19856
O         51.87385      -16.98264       73.57532
C         49.22472      -18.21895       72.15519
C         48.45464      -19.51954       71.84858
C         46.99093      -19.38469       72.16563
O         46.59093      -19.12145       73.42417
O         46.15584      -19.52907       71.28623
H         50.69234      -17.93973       69.71578
H         51.08063      -19.21277       72.45190
H         48.73965      -17.42196       71.56827
H         49.11254      -17.97842       73.23451
H         48.87135      -20.35737       72.44708
H         48.56348      -19.77127       70.77015
N         51.60592      -15.92686       71.42870
C         50.27023      -15.35714       71.24616
H         49.69686      -15.33836       72.19787
H         50.35746      -14.31649       70.86804
H         49.73144      -15.90549       70.44723
H         52.19769      -15.21994       71.92007
Ca        54.20680      -17.03123       74.01237
O         52.23166      -16.89779       76.48780
H         52.63992      -16.24645       77.10780
H         51.40222      -17.18223       76.94570
O         54.41173      -19.63199       72.54123
H         53.42533      -19.62251       72.49236
H         54.68111      -18.78661       72.10260
O         52.20593      -19.60558       74.91090
H         51.51845      -19.48603       75.61270
H         52.78122      -20.33883       75.24346

Ca 1.0



