%chk=apoCaM-CA-Ng.loop1.water2.frame1038.chk
%nprocshared=20
%mem=10GB
%nosave
#b3lyp/svp scf=(tight,noincore,xqc) Test 
#IOP(5/87=12) Density=Current Pop=(MK,readradii) iop(6/33=2) iop(6/42=6)

apoCaM-CA-Ng.loop1.water2.frame1038 

   0  1 
C          1.97281       35.70278       63.14524
C          2.21814       35.96368       64.59996
O          2.20444       37.12217       64.98949
H          0.98843       36.12725       62.85725
H          2.76834       36.19273       62.54426
H          1.97465       34.61640       62.92100
N          2.49008       34.93827       65.46010
C          2.76784       35.15077       66.87758
C          4.24658       34.96474       67.14998
O          4.62325       34.25015       68.06995
C          1.85515       34.26283       67.76248
C          2.05301       32.76826       67.60982
O          1.30374       31.92844       68.34807
O          2.88672       32.30413       66.84720
H          2.55255       33.98383       65.07850
H          2.55492       36.20712       67.14461
H          0.79526       34.49919       67.52853
H          2.03482       34.51930       68.82928
N          5.15533       35.60489       66.36291
C          6.58883       35.51782       66.59229
C          6.93666       36.23333       67.88948
O          7.48131       35.57203       68.76239
C          7.41401       35.98423       65.36313
C          7.04971       35.22561       64.06275
C          7.26172       33.70412       64.15380
C          6.88481       33.00555       62.84205
N          7.09267       31.56084       62.94653
H          4.81023       36.15984       65.56677
H          6.86073       34.45035       66.72662
H          8.49237       35.82604       65.58105
H          7.28763       37.06168       65.15595
H          7.68542       35.62458       63.24276
H          5.99215       35.42923       63.79077
H          6.61850       33.27047       64.94617
H          8.32719       33.49808       64.39458
H          7.50254       33.40786       62.00947
H          5.81297       33.20393       62.61464
H          6.50690       31.16592       63.71840
H          6.81403       31.10720       62.04691
H          8.10151       31.35616       63.13189
N          6.59819       37.52845       68.17785
C          5.90999       38.46741       67.28897
C          4.46799       38.66774       67.73189
O          4.08516       38.15769       68.77627
C          6.68738       39.80492       67.19433
C          6.65508       40.56145       68.49590
O          5.94573       41.69860       68.56701
O          7.16289       40.10250       69.50373
H          6.79646       37.83662       69.13920
H          5.83796       38.05535       66.27713
H          6.19861       40.43462       66.42088
H          7.73616       39.63015       66.87082
N          3.58535       39.34676       66.94127
C          2.16420       39.40026       67.25298
C          1.79433       40.60086       68.08058
O          2.59881       41.49927       68.23988
H          3.90065       39.69939       66.02458
H          1.85538       38.46423       67.76358
H          1.57478       39.45663       66.31245
N          0.56281       40.66547       68.65663
C          0.05987       41.82983       69.39214
C         -1.36174       42.13516       68.91196
O         -1.90557       41.32474       68.17392
C          0.14795       41.52830       70.90781
C          1.59642       41.33765       71.27104
O          2.45218       42.36072       71.08123
O          2.01236       40.24620       71.62366
H         -0.03866       39.82950       68.59082
H          0.69157       42.71518       69.16580
H         -0.43559       40.60912       71.13543
H         -0.24654       42.35304       71.52655
N         -2.06593       43.26335       69.22122
C         -1.63008       44.39963       70.01028
C         -0.47253       45.14833       69.38904
O         -0.52462       45.48223       68.21364
H         -3.02165       43.33344       68.83554
H         -1.42784       44.10784       71.05834
H         -2.47675       45.11923       70.05219
N          0.56993       45.53019       70.17349
C          1.66747       46.38320       69.72636
C          2.74434       45.55713       69.05727
O          3.13405       44.54263       69.60867
C          2.27868       47.12431       70.94083
C          1.26727       48.08596       71.57550
O          3.39123       47.87947       70.53687
H          0.52149       45.29010       71.17596
H          1.29698       47.17821       69.03852
H          2.58174       46.38586       71.71937
H          4.17004       47.26387       70.52408
H          0.99781       48.88987       70.85596
H          0.33957       47.55990       71.88143
H          1.71386       48.55629       72.47660
N          3.32461       45.98905       67.90086
C          4.42724       45.32845       67.20224
C          5.69685       45.24967       68.05968
O          5.68180       44.62998       69.11282
C          4.04987       43.90391       66.70048
C          2.64427       43.80870       66.05205
C          5.13106       43.35442       65.74631
C          2.41890       44.72111       64.84775
H          2.97521       46.86522       67.48278
H          4.64260       45.93839       66.29645
H          4.02842       43.23644       67.57798
H          1.87451       44.05111       66.81541
H          2.46621       42.75582       65.73875
H          4.87659       42.32117       65.42908
H          5.22933       43.99057       64.84228
H          6.12237       43.31706       66.24457
H          3.12888       44.49028       64.02896
H          1.38751       44.56418       64.46664
H          2.51908       45.78607       65.14023
N          6.87134       45.76093       67.59917
C          8.15540       45.47425       68.24634
C          8.35579       46.11023       69.61978
O          9.33412       45.75914       70.26813
C          9.33483       45.87691       67.31702
C          9.41549       47.39258       67.07204
O          9.21272       45.22725       66.07777
H          6.86153       46.23511       66.68481
H          8.20813       44.36982       68.38112
H         10.30010       45.58012       67.79120
H          9.50151       44.28736       66.21508
H         10.28049       47.61843       66.41353
H          8.49997       47.77740       66.57765
H          9.55819       47.94140       68.02653
N          7.56340       47.11303       70.08977
C          7.91884       47.86625       71.29358
C          7.65213       47.08111       72.57246
O          6.50537       46.75555       72.84267
C          7.19804       49.23821       71.33425
C          7.60097       50.11316       70.13491
O          5.80753       49.05973       71.35329
H          6.78255       47.44098       69.50266
H          9.00378       48.11359       71.24246
H          7.51701       49.76041       72.26654
H          5.40259       49.94659       71.54104
H          8.70085       50.26809       70.12534
H          7.29873       49.65003       69.17269
H          7.11141       51.10676       70.20849
N          8.67507       46.80059       73.43812
C          8.50403       46.21288       74.76816
C          7.89059       44.82244       74.69530
O          6.79123       44.62261       75.19586
C          7.68257       47.15354       75.68717
C          8.28922       48.56131       75.80361
C          7.42909       49.43813       76.72910
C          7.89204       50.90352       76.79016
N          9.20821       51.05626       77.41128
H          9.63387       47.07132       73.17133
H          9.50546       46.10913       75.24416
H          7.63816       46.70110       76.70349
H          6.64322       47.24478       75.30685
H          8.31837       49.02880       74.79572
H          9.32545       48.48479       76.19565
H          7.40860       49.00704       77.75433
H          6.38946       49.44166       76.33456
H          7.14940       51.47415       77.39118
H          7.90366       51.33561       75.76495
H          9.44340       52.07453       77.45206
H          9.19053       50.67775       78.38609
H          9.94481       50.57288       76.85114
N          8.56951       43.79954       74.10104
C          8.01841       42.45101       73.97374
C          7.87238       42.07913       72.50446
O          6.73216       41.90475       72.10309
C          8.79491       41.39886       74.80224
C          8.68078       41.66903       76.31096
C          9.41860       40.62953       77.10700
O         10.42343       40.99555       77.92548
O          9.10527       39.45205       77.02652
H          9.50530       44.00127       73.72525
H          6.98547       42.42682       74.39125
H          9.86431       41.35000       74.53617
H          8.34980       40.39904       74.59930
H          7.61100       41.65332       76.61471
H          9.09982       42.67072       76.54536
N          8.89082       41.92817       71.60352
C         10.31252       42.05952       71.83567
H         10.72173       42.82959       71.15058
H         10.58178       42.35070       72.85592
H         10.80175       41.08785       71.60999
H          8.63457       41.68388       70.63721
Ca         4.55441       42.03558       70.31605
O          4.43851       44.30719       72.36584
H          4.47323       44.63257       73.29964
H          4.73279       45.07881       71.82038
O          5.05223       39.25232       71.73558
H          4.21897       38.73055       71.84343
H          5.09078       39.44113       70.76666

Ca 1.0



