%chk=apoCaM-CA-Ng.loop3.water4.frame1016.chk
%nprocshared=20
%mem=10GB
%nosave
#b3lyp/svp scf=(tight,noincore,xqc) Test 
#IOP(5/87=12) Density=Current Pop=(MK,readradii) iop(6/33=2) iop(6/42=6)

apoCaM-CA-Ng.loop3.water4.frame1016 

   0  1 
C         41.70774       20.07171       21.34499
C         40.56755       20.52546       20.48509
O         40.00208       21.57288       20.76748
H         42.50771       20.84143       21.33318
H         41.35050       19.93384       22.38705
H         42.13115       19.11163       20.98372
N         40.16963       19.79070       19.40644
C         39.07343       20.21730       18.54377
C         37.74145       20.29807       19.27408
O         36.84981       20.94295       18.75560
C         38.94893       19.31798       17.29235
C         38.64325       17.86391       17.57189
O         38.48981       17.40110       18.82768
O         38.54253       17.08537       16.63805
H         40.68415       18.92643       19.17826
H         39.32460       21.24192       18.18826
H         39.90547       19.36641       16.72877
H         38.14735       19.72386       16.64053
N         37.52243       19.66519       20.46099
C         36.26001       19.72724       21.19360
C         35.10213       19.19509       20.35463
O         35.15945       18.06229       19.89617
C         36.40624       18.92330       22.50372
C         35.16692       18.97092       23.40966
C         35.43918       18.18839       24.70200
C         34.22248       18.18146       25.63389
N         34.50889       17.42047       26.85063
H         38.28717       19.10589       20.86630
H         36.06522       20.78667       21.47336
H         37.26494       19.34918       23.06984
H         36.64058       17.86293       22.26061
H         34.29879       18.51954       22.88195
H         34.92580       20.02763       23.65916
H         36.30095       18.64887       25.23435
H         35.70015       17.13832       24.44471
H         33.35631       17.72034       25.10938
H         33.95481       19.22622       25.90737
H         35.30898       17.85373       27.36691
H         33.66502       17.42628       27.46757
H         34.74333       16.42996       26.60867
N         33.99044       19.96492       20.16071
C         32.79634       19.49919       19.45197
C         32.99057       19.29224       17.95042
O         32.05656       18.80839       17.32506
C         31.60341       20.46307       19.68059
C         31.79656       21.81163       19.03592
O         31.02842       22.18919       18.16545
O         32.81362       22.60777       19.40708
H         33.96608       20.88327       20.62515
H         32.50664       18.52462       19.90460
H         31.43366       20.59809       20.77030
H         30.68448       19.99779       19.25804
N         34.13148       19.65473       17.29297
C         34.30022       19.50499       15.85514
C         35.43990       18.54904       15.54923
O         35.43758       17.48183       16.14550
H         34.90361       20.07515       17.81348
H         34.42059       20.51273       15.42974
H         33.38838       19.07613       15.39248
N         36.42425       18.76603       14.61956
C         36.53755       19.90779       13.71990
C         37.90859       20.55544       13.90156
O         38.89365       19.94705       13.50663
C         36.32142       19.39849       12.27592
C         36.30507       20.49060       11.23414
N         35.20715       20.69113       10.46625
O         37.29576       21.18470       11.06342
H         37.12556       18.01812       14.49595
H         35.74491       20.64128       13.89966
H         35.34644       18.86289       12.24975
H         37.10861       18.65878       12.01153
H         34.36345       20.11042       10.58279
H         35.20035       21.42599        9.74373
N         38.09021       21.75738       14.52524
C         37.00957       22.49314       15.15837
C         37.51381       23.69155       15.92928
O         38.35698       23.51546       16.79841
H         39.05463       22.11742       14.61012
H         36.52161       21.82307       15.89843
H         36.26053       22.80173       14.39933
N         37.00023       24.93660       15.70040
C         37.39141       26.12411       16.45986
C         36.17419       26.76362       17.13958
O         35.04793       26.40125       16.82761
C         38.04987       27.11060       15.46920
C         38.60321       28.36105       16.10395
C         38.06655       29.61751       15.77690
C         39.66641       28.28521       17.01885
C         38.57891       30.77813       16.36185
C         40.17977       29.44819       17.60064
C         39.63551       30.69941       17.27455
O         40.11562       31.82861       17.83264
H         36.29594       25.05012       14.95529
H         38.12058       25.84212       17.24996
H         37.28937       27.37607       14.70084
H         38.88614       26.60068       14.94299
H         37.24685       29.70019       15.07403
H         40.09800       27.32702       17.27934
H         38.15124       31.73958       16.10698
H         40.99846       29.37534       18.30505
H         40.84200       31.81762       18.47197
N         36.33899       27.73930       18.08393
C         35.22918       28.48320       18.68923
C         34.46117       29.24951       17.61828
O         35.05378       30.04951       16.90836
C         35.69094       29.45791       19.83554
C         36.06637       28.71434       21.14285
C         36.85136       30.39307       19.43642
C         34.84672       28.13366       21.86812
H         37.29922       27.95269       18.37482
H         34.52874       27.75940       19.14020
H         34.83326       30.12119       20.09052
H         36.51081       29.43967       21.85958
H         36.82057       27.92348       20.94136
H         37.79290       29.83743       19.26551
H         36.60814       30.99185       18.53941
H         37.05434       31.11124       20.25933
H         35.16603       27.65996       22.81968
H         34.12605       28.94536       22.11066
H         34.32641       27.36977       21.26840
N         33.12382       29.02906       17.44288
C         32.31816       29.69655       16.41808
C         30.90827       29.11007       16.31894
O         30.51907       28.29506       17.14363
C         32.22870       31.21585       16.68208
O         31.58276       31.45317       17.90425
H         32.67784       28.32855       18.04872
H         32.80990       29.51525       15.43705
H         31.66288       31.69830       15.85368
H         33.23767       31.67594       16.70719
H         31.33395       32.41439       17.90713
N         30.08733       29.48765       15.29606
C         28.74019       28.96749       15.07150
C         27.77938       29.30668       16.20490
O         26.82782       28.56941       16.42420
C         28.78096       27.46117       14.76577
H         30.44096       30.17362       14.61176
H         28.33576       29.46202       14.16143
H         27.77130       27.09309       14.48633
H         29.46771       27.26749       13.91435
H         29.12595       26.88010       15.64300
N         27.95892       30.43307       16.95385
C         27.07867       30.86251       18.03493
C         26.91240       29.77918       19.08978
O         25.79551       29.51848       19.51993
C         25.72883       31.33721       17.47112
H         28.77720       31.03029       16.76414
H         27.56023       31.73833       18.52348
H         25.89176       32.14195       16.72367
H         25.18715       30.50225       16.97768
H         25.08873       31.74137       18.28424
N         27.98917       29.06590       19.52144
C         27.85867       27.98474       20.48856
C         27.72627       28.55233       21.88790
O         26.76622       28.22904       22.57244
C         28.99887       26.94755       20.35201
C         30.38990       27.41991       20.78632
C         31.40868       26.35728       20.53731
O         32.36550       26.60090       19.82829
O         31.28905       25.14123       21.10427
H         28.90494       29.24659       19.08575
H         26.95055       27.39004       20.23329
H         29.03183       26.62041       19.28773
H         28.73535       26.05884       20.96842
H         30.39669       27.62841       21.87463
H         30.67869       28.33692       20.22979
N         28.65891       29.42689       22.36610
C         28.63686       29.98583       23.70035
H         28.57592       31.09189       23.63376
H         27.78258       29.61325       24.30164
H         29.57910       29.71172       24.22136
H         29.43371       29.72413       21.75536
Ca        33.13647       24.54551       18.32105
O         35.07971       24.76727       20.80323
H         35.98091       24.40849       21.00026
H         34.73762       25.06806       21.68143
O         31.05860       25.35502       16.50842
H         30.87621       25.71971       17.41112
H         31.65822       26.02133       16.08699
O         33.54778       23.59866       15.64214
H         33.89417       24.29780       15.03337
H         33.47182       22.78883       15.07963
O         35.63952       23.52761       18.07702
H         35.17575       22.65934       17.97365
H         36.30923       23.38639       18.79002

Ca 1.0



