%chk=apoCaM-CA-Ng.loop2.water4.frame558.chk
%nprocshared=20
%mem=10GB
%nosave
#b3lyp/svp scf=(tight,noincore,xqc) Test 
#IOP(5/87=12) Density=Current Pop=(MK,readradii) iop(6/33=2) iop(6/42=6)

apoCaM-CA-Ng.loop2.water4.frame558 

   -2  1 
C         54.42344       38.94997       -5.44224
C         54.51640       39.98808       -6.51785
O         54.61314       41.16638       -6.20337
H         54.44856       39.42562       -4.43819
H         53.47359       38.38379       -5.54418
H         55.28083       38.25175       -5.53102
N         54.46824       39.62265       -7.82873
C         54.54225       40.60318       -8.90275
C         55.93720       41.18613       -9.00015
O         56.90426       40.48503       -8.74041
C         54.11113       39.98280      -10.24855
C         54.04512       41.00946      -11.35010
O         54.68145       40.85209      -12.37954
O         53.27560       42.10660      -11.20615
H         54.33840       38.62486       -8.06086
H         53.80883       41.40923       -8.67998
H         53.08975       39.56498      -10.12350
H         54.79529       39.15336      -10.53696
N         56.10772       42.44804       -9.47937
C         57.41882       43.03545       -9.73254
C         58.13342       43.37197       -8.42377
O         57.49379       43.27369       -7.38455
C         57.21801       44.27237      -10.61663
H         55.26439       42.97956       -9.74140
H         58.00037       42.28803      -10.30401
H         56.64398       43.97427      -11.52116
H         56.63755       45.04563      -10.07054
H         58.15980       44.70901      -10.97805
N         59.44619       43.75510       -8.32917
C         60.40464       43.90787       -9.42676
C         60.56003       42.67363      -10.28951
O         60.58679       41.55492       -9.79647
C         61.79289       44.40510       -8.95828
C         62.30829       43.76300       -7.70283
O         62.46926       42.55915       -7.63333
O         62.57606       44.53355       -6.63035
H         59.78885       43.94270       -7.37419
H         60.06260       44.71725      -10.09285
H         61.71763       45.49347       -8.75658
H         62.53071       44.27621       -9.78432
N         60.65775       42.85221      -11.63699
C         60.77390       41.78690      -12.60380
C         59.41775       41.46120      -13.20970
O         58.42190       42.02260      -12.77900
H         60.63767       43.81035      -12.01810
H         61.21538       40.87412      -12.14675
H         61.47353       42.13922      -13.39293
N         59.26931       40.54959      -14.21320
C         60.38999       39.87642      -14.85098
C         60.34337       38.39268      -14.55417
O         60.65217       37.57722      -15.41231
C         60.42454       40.24999      -16.34511
C         60.39097       41.75690      -16.51032
N         59.36142       42.36033      -17.15168
O         61.28766       42.43923      -16.03690
H         58.31828       40.34189      -14.55679
H         61.35129       40.21144      -14.42057
H         59.54182       39.80336      -16.85070
H         61.34435       39.84757      -16.82107
H         58.58940       41.80855      -17.55295
H         59.32760       43.38740      -17.23843
N         60.08271       37.99679      -13.27495
C         60.26453       36.64922      -12.78069
C         61.62829       36.50515      -12.12685
O         61.86612       35.47223      -11.52010
H         59.87368       38.71357      -12.56467
H         60.17555       35.89012      -13.58816
H         59.45892       36.44271      -12.04112
N         62.59670       37.46850      -12.25301
C         63.95467       37.31313      -11.73169
C         63.98654       37.14891      -10.21916
O         63.58324       38.03212       -9.47984
C         64.91375       38.43819      -12.20924
C         65.49293       38.08830      -13.58708
O         64.25894       39.68015      -12.24729
H         62.38757       38.31397      -12.79924
H         64.35411       36.36967      -12.15613
H         65.77837       38.48929      -11.50961
H         64.93595       40.36593      -12.48628
H         64.69607       38.00684      -14.35392
H         66.23762       38.85116      -13.89435
H         66.03052       37.11514      -13.51931
N         64.45863       35.97099       -9.72119
C         64.43391       35.55185       -8.32648
C         65.56553       36.15979       -7.51241
O         66.72343       35.96749       -7.85502
C         64.52989       33.99081       -8.27202
C         64.66076       33.45903       -6.81770
C         63.30319       33.37250       -8.97800
C         64.71112       31.93405       -6.72425
H         64.76713       35.26736      -10.40709
H         63.45210       35.81827       -7.89232
H         65.44584       33.68064       -8.82533
H         63.81770       33.81843       -6.19410
H         65.60817       33.84161       -6.37936
H         63.17744       33.75887      -10.00764
H         63.42236       32.27677       -9.08572
H         62.37636       33.59283       -8.40712
H         63.73770       31.49126       -7.01964
H         65.51727       31.52906       -7.37206
H         64.90544       31.63422       -5.67390
N         65.28447       36.81497       -6.35053
C         66.27138       37.21662       -5.35799
C         65.96159       36.63218       -3.96359
O         66.76851       36.86706       -3.07447
C         66.43549       38.75608       -5.37515
C         65.14638       39.51071       -5.37052
O         64.79627       40.24325       -6.45584
O         64.40909       39.45035       -4.40231
H         64.30856       37.01125       -6.12243
H         67.27193       36.81092       -5.62516
H         66.93702       39.00897       -6.33116
H         67.08351       39.09821       -4.54100
N         64.89340       35.80195       -3.70313
C         64.70754       35.12370       -2.41854
C         63.22055       35.10357       -1.99354
O         62.66473       34.02313       -1.84729
C         65.27283       33.68708       -2.56604
C         65.54956       33.02742       -1.23553
C         66.70829       33.38531       -0.52255
C         64.69774       32.04248       -0.70742
C         67.01260       32.76669        0.69239
C         64.99583       31.44010        0.52086
C         66.15461       31.79783        1.21671
H         64.26769       35.52255       -4.46304
H         65.30446       35.63618       -1.63289
H         66.24463       33.71185       -3.10775
H         64.59231       33.07865       -3.20200
H         67.38753       34.12971       -0.92050
H         63.80060       31.74763       -1.23584
H         67.91579       33.03710        1.22471
H         64.33159       30.69119        0.93204
H         66.39042       31.32261        2.16026
N         62.49390       36.24395       -1.76776
C         61.09339       36.26241       -1.33205
C         60.09487       35.54279       -2.23353
O         58.96093       35.34821       -1.81749
C         60.72726       37.75083       -1.39247
C         62.03852       38.43609       -1.10016
C         63.04732       37.57397       -1.85512
H         61.06977       35.83639       -0.30357
H         60.48228       38.01931       -2.44802
H         59.86931       38.04383       -0.74953
H         62.07442       39.51484       -1.36449
H         62.22239       38.31800       -0.01036
H         63.13166       37.83663       -2.92840
H         64.02936       37.66917       -1.34337
N         60.41559       35.22685       -3.51605
C         59.47337       34.65108       -4.46959
C         59.52252       33.14754       -4.35274
O         58.48153       32.50850       -4.30376
C         59.71297       35.05827       -5.95055
C         60.06633       36.53556       -6.20076
C         61.53657       36.76645       -6.10171
O         62.04708       37.90422       -6.57107
O         62.29572       35.87725       -5.76211
H         61.36328       35.43267       -3.81477
H         58.45477       35.04356       -4.24749
H         58.76621       34.84103       -6.49095
H         60.48497       34.42845       -6.44706
H         59.49474       37.23556       -5.55057
H         59.83016       36.77632       -7.25765
N         60.73110       32.52561       -4.22715
C         60.87095       31.10465       -4.01149
H         61.87185       30.90070       -3.57183
H         60.10890       30.74188       -3.28963
H         60.78809       30.56420       -4.97600
H         61.59148       33.09316       -4.19545
Ca        62.80978       39.80910       -7.38608
O         64.30470       41.15048       -9.46215
H         64.50023       42.11827       -9.40879
H         63.82843       41.04935      -10.32087
O         61.47899       40.59021       -4.91857
H         61.36851       40.52890       -3.94057
H         62.23333       39.98248       -5.08345
O         59.72151       40.26319       -7.32682
H         59.27939       41.14330       -7.24102
H         59.05021       39.68847       -7.77025
O         60.82058       38.45485       -9.53430
H         59.90506       38.66016       -9.84711
H         60.86274       37.46601       -9.51635

Ca 1.0



