%chk=apoCaM-CA-Ng.loop3.water2.frame555.chk
%nprocshared=20
%mem=10GB
%nosave
#b3lyp/svp scf=(tight,noincore,xqc) Test 
#IOP(5/87=12) Density=Current Pop=(MK,readradii) iop(6/33=2) iop(6/42=6)

apoCaM-CA-Ng.loop3.water2.frame555 

   0  1 
C         42.69319       13.19435       82.50015
C         41.61437       12.16104       82.36929
O         40.44396       12.50858       82.30275
H         43.39310       13.10560       81.64123
H         42.26596       14.21862       82.50684
H         43.25675       13.02790       83.44202
N         41.95654       10.84894       82.29118
C         40.98734        9.77791       82.10238
C         40.13311        9.61710       83.35623
O         40.71129        9.47954       84.42645
C         41.74676        8.47351       81.76899
C         40.87311        7.43902       81.13017
O         41.33381        6.34486       80.84906
O         39.60808        7.73194       80.78531
H         42.96215       10.61407       82.31491
H         40.36323       10.03387       81.22170
H         42.23684        8.07632       82.68419
H         42.53750        8.68444       81.01808
N         38.76368        9.61636       83.31046
C         37.92976        9.57096       84.51747
C         37.27238        8.21181       84.74130
O         36.79068        7.98414       85.84194
C         36.94261       10.74879       84.47799
C         36.11365       10.94346       85.75675
C         35.31059       12.24728       85.66224
C         34.51630       12.52239       86.94397
N         33.83692       13.81555       86.86055
H         38.29595        9.66498       82.39205
H         38.58330        9.71163       85.40695
H         36.26375       10.62594       83.60996
H         37.55003       11.66802       84.32277
H         36.80109       11.01011       86.62824
H         35.41963       10.08877       85.90655
H         34.61337       12.19965       84.79664
H         36.02024       13.08839       85.50213
H         35.20962       12.53569       87.81430
H         33.76699       11.71521       87.10248
H         34.54034       14.58064       86.73751
H         33.16782       13.82233       86.05684
H         33.30931       13.98586       87.74671
N         37.32261        7.22233       83.80409
C         37.03607        5.82045       84.11072
C         38.34745        5.01972       84.07019
O         38.32323        3.83856       84.38709
C         35.88603        5.28080       83.22180
C         36.15675        5.43759       81.76041
O         37.14836        4.75107       81.17890
O         35.53832        6.26634       81.11033
H         37.69005        7.43488       82.86590
H         36.67535        5.71568       85.15699
H         34.98011        5.87731       83.46961
H         35.66326        4.21659       83.44950
N         39.54463        5.62951       83.78371
C         40.86335        5.02697       83.90634
C         41.20024        3.92569       82.92885
O         42.34588        3.49442       82.95876
H         39.57220        6.62922       83.55115
H         41.00685        4.66145       84.94506
H         41.61409        5.83058       83.73390
N         40.29539        3.38837       82.06494
C         40.61477        2.28057       81.17248
C         40.14891        2.56100       79.75642
O         39.53467        3.58706       79.49940
C         39.95470        1.00210       81.72650
C         40.56842        0.60694       83.04840
N         41.86830        0.22930       83.11693
O         39.88660        0.61787       84.06192
H         39.32153        3.71411       82.07949
H         41.71368        2.11808       81.11633
H         40.08563        0.14474       81.03495
H         38.86364        1.18656       81.84581
H         42.45422        0.19551       82.26955
H         42.29036       -0.04423       84.01656
N         40.42814        1.66828       78.76981
C         40.01748        1.83093       77.38773
C         40.62494        3.06369       76.76656
O         41.83595        3.22387       76.83476
H         40.96409        0.81845       79.00571
H         38.90801        1.84961       77.31917
H         40.37803        0.95074       76.81317
N         39.84562        3.95400       76.08730
C         40.40675        5.11217       75.39843
C         40.77100        6.22703       76.36821
O         40.55986        6.09378       77.56476
C         39.47524        5.57723       74.25225
C         39.35485        4.51895       73.17345
C         38.10340        3.98329       72.82660
C         40.50156        4.06699       72.48997
C         38.00344        3.01148       71.82327
C         40.39979        3.09156       71.49627
C         39.14921        2.55984       71.15858
O         39.03758        1.61944       70.19854
H         38.84029        3.74789       75.97882
H         41.36441        4.80929       74.92564
H         39.88914        6.48089       73.76042
H         38.47958        5.84410       74.66273
H         37.20443        4.31872       73.32762
H         41.48071        4.46487       72.72214
H         37.03358        2.60809       71.56165
H         41.29459        2.75248       70.98859
H         39.80751        1.28014       69.71926
N         41.42432        7.32725       75.89017
C         42.06400        8.37132       76.68642
C         41.10027        9.22506       77.50700
O         40.42254        8.69977       78.37498
C         43.16668        7.77225       77.62301
C         44.03684        8.87234       78.29716
C         44.06206        6.74655       76.90027
C         44.88642        9.71266       77.33286
H         41.58988        7.38325       74.87434
H         42.57833        9.02956       75.95661
H         42.66441        7.21438       78.44345
H         44.72737        8.38291       79.01795
H         43.38919        9.56034       78.88039
H         44.82157        6.34351       77.60406
H         43.46573        5.88137       76.54474
H         44.57189        7.19325       76.02380
H         45.48417       10.44517       77.91350
H         45.59604        9.07739       76.76445
H         44.25794       10.28528       76.62264
N         41.11108       10.58540       77.37890
C         40.51192       11.47124       78.37974
C         38.99337       11.43212       78.47245
O         38.47433       11.99026       79.43050
C         40.96612       12.92610       78.16413
O         42.36618       13.01857       78.22848
H         41.70635       11.00082       76.64673
H         40.91597       11.15541       79.36333
H         40.54926       13.58144       78.95919
H         40.57931       13.31288       77.19159
H         42.70337       13.06583       77.29612
N         38.20422       10.85523       77.52377
C         36.74590       10.87716       77.62463
C         36.27872       10.00256       78.77861
O         36.62628        8.83036       78.77032
C         36.10785       10.39096       76.31881
H         38.64469       10.43969       76.68942
H         36.42120       11.92089       77.74575
H         36.39626        9.34791       76.08985
H         35.00052       10.44471       76.39361
H         36.43120       11.04021       75.47738
N         35.48713       10.43094       79.80980
C         34.93999       11.77550       80.00616
C         34.02985       12.17356       78.84832
O         33.12156       11.40707       78.55741
C         34.11258       11.79483       81.30414
H         35.24782        9.71722       80.51826
H         35.77609       12.48337       80.14862
H         34.75449       11.52986       82.16633
H         33.68043       12.79590       81.49837
H         33.27768       11.06281       81.25133
N         34.17157       13.32435       78.11441
C         35.14118       14.39098       78.39096
C         35.45773       15.31884       77.21199
O         36.32913       16.16018       77.39302
C         34.68896       15.23989       79.60994
C         33.44158       16.11573       79.35895
C         32.20359       15.32042       79.05961
O         31.72595       14.44464       79.96392
O         31.61632       15.47516       78.00036
H         33.49695       13.43989       77.35060
H         36.11952       13.92630       78.61724
H         35.51880       15.92786       79.88269
H         34.51761       14.59513       80.49031
H         33.64684       16.82047       78.52344
H         33.24497       16.72496       80.26674
N         34.83843       15.26293       75.99602
C         35.18494       16.18095       74.93233
H         36.25278       16.05308       74.65500
H         34.55713       15.98217       74.03807
H         35.00954       17.22736       75.26271
H         34.10352       14.58063       75.78537
Ca        38.36570        6.10714       79.93166
O         37.87260        7.25269       76.78371
H         38.30237        7.85959       76.12976
H         36.98854        7.04644       76.38879
O         36.16256        4.91546       78.02851
H         36.18182        4.09656       78.58422
H         36.56906        4.64028       77.16869

Ca 1.0



