%chk=apoCaM-CA-Ng.loop1.water5.frame1028.chk
%nprocshared=20
%mem=10GB
%nosave
#b3lyp/svp scf=(tight,noincore,xqc) Test 
#IOP(5/87=12) Density=Current Pop=(MK,readradii) iop(6/33=2) iop(6/42=6)

apoCaM-CA-Ng.loop1.water5.frame1028 

   0  1 
C         39.66991       43.80488       65.99674
C         39.56365       44.82997       67.08506
O         38.46351       45.03440       67.57923
H         40.71474       43.69468       65.64097
H         39.31483       42.82485       66.37848
H         39.03190       44.11060       65.14004
N         40.65882       45.53863       67.49268
C         40.58465       46.57518       68.51491
C         40.77038       47.93156       67.86381
O         41.86947       48.29167       67.46626
C         41.54191       46.32440       69.70115
C         43.00295       46.28583       69.33556
O         43.84969       47.19223       69.85980
O         43.43734       45.41776       68.59594
H         41.55680       45.37470       67.01576
H         39.56920       46.56776       68.96704
H         41.27723       45.36085       70.18771
H         41.38232       47.13470       70.44686
N         39.66957       48.70016       67.65280
C         39.67579       50.00393       67.00346
C         40.33391       51.06586       67.88391
O         41.28029       51.67548       67.40643
C         38.23187       50.41163       66.59503
C         37.57899       49.41969       65.60084
C         38.17203       49.43338       64.18074
C         37.81813       50.72361       63.42270
N         38.34357       50.69294       62.05932
H         38.75933       48.29959       67.92416
H         40.25754       49.93508       66.06031
H         38.22254       51.43646       66.17224
H         37.58129       50.43406       67.48537
H         36.49416       49.64622       65.51936
H         37.65502       48.38964       66.00574
H         37.72415       48.58402       63.62073
H         39.26914       49.27173       64.20148
H         38.22573       51.61466       63.94348
H         36.70938       50.81964       63.38103
H         38.03325       51.55559       61.55628
H         39.38871       50.66964       62.08185
H         37.98032       49.85571       61.54834
N         39.93411       51.38947       69.15452
C         38.88766       50.72216       69.92249
C         39.48671       50.04771       71.14868
O         40.69164       50.14139       71.34627
C         37.70384       51.67755       70.14782
C         37.97153       52.90636       70.94953
O         38.20847       52.79942       72.26122
O         37.82721       54.01019       70.45024
H         40.43850       52.15529       69.63085
H         38.45541       49.89083       69.36209
H         36.87639       51.13540       70.64190
H         37.34056       51.99692       69.14712
N         38.72154       49.26338       71.96404
C         39.29972       48.37775       72.96688
C         38.96549       48.79406       74.37660
O         37.80014       48.84818       74.73535
H         37.70425       49.21670       71.81105
H         40.40375       48.33181       72.85821
H         38.93349       47.34505       72.78283
N         39.97676       49.09704       75.23879
C         39.78884       49.50352       76.62785
C         39.22529       48.36433       77.46813
O         39.79062       47.28047       77.42034
C         41.14212       49.91300       77.24960
C         41.76104       51.08446       76.53891
O         41.12561       52.27099       76.50962
O         42.85123       50.97109       76.00198
H         40.94228       49.05358       74.87793
H         39.13402       50.39248       76.65291
H         41.84071       49.04669       77.22210
H         40.99043       50.20286       78.31231
N         38.17817       48.51543       78.33224
C         37.47300       49.76458       78.56388
C         36.30557       49.91808       77.62461
O         36.01191       49.00465       76.86610
H         37.92126       47.71268       78.92829
H         38.16831       50.62852       78.55152
H         37.04484       49.74791       79.58968
N         35.54282       51.04639       77.67412
C         34.30062       51.18214       76.91507
C         34.54508       51.09351       75.41017
O         35.66960       51.27501       74.96671
C         33.53501       52.48187       77.29730
C         33.22781       52.57726       78.80588
O         32.33502       52.58632       76.57282
H         35.83646       51.79278       78.31983
H         33.66302       50.31536       77.20117
H         34.16412       53.35646       77.02920
H         31.73825       51.85086       76.87291
H         32.61056       51.71420       79.13422
H         34.14800       52.60194       79.42284
H         32.67037       53.51424       79.01568
N         33.52695       50.71315       74.58417
C         33.63177       50.44248       73.14997
C         33.90773       51.69538       72.33615
O         34.93407       52.33186       72.51256
C         34.65570       49.31204       72.81200
C         34.29063       48.02214       73.58833
C         34.66677       49.04534       71.28853
C         35.22845       46.84298       73.31894
H         32.60674       50.52866       75.01250
H         32.64045       50.05241       72.82909
H         35.67710       49.63420       73.10349
H         33.25482       47.71045       73.33065
H         34.32836       48.23590       74.67723
H         33.66881       48.70659       70.93870
H         34.93617       49.95754       70.72943
H         35.43132       48.29556       71.00740
H         36.27616       47.11239       73.55843
H         34.92535       45.98326       73.95128
H         35.16736       46.50871       72.26352
N         33.03603       52.02632       71.33946
C         33.25445       53.10522       70.38294
C         32.13823       54.13192       70.42036
O         32.25082       55.10677       69.68184
C         33.41523       52.51341       68.95561
C         32.16567       51.74453       68.47602
O         34.53732       51.66875       68.94330
H         32.19766       51.44490       71.21308
H         34.19377       53.64856       70.62696
H         33.60157       53.35809       68.25349
H         34.60310       51.25933       68.04162
H         31.26606       52.39408       68.49709
H         32.31312       51.39917       67.43119
H         31.98123       50.84449       69.09762
N         31.03885       54.01178       71.22224
C         29.99358       55.02895       71.26421
C         30.60832       56.31936       71.77415
O         30.91219       56.40175       72.95611
C         28.79088       54.57746       72.13633
C         28.05723       53.39334       71.48291
O         29.24301       54.21994       73.42086
H         30.93691       53.18067       71.82415
H         29.62114       55.18885       70.22677
H         28.07343       55.42507       72.21798
H         28.45032       53.94721       73.95247
H         28.72597       52.51537       71.36552
H         27.18916       53.09036       72.10639
H         27.67371       53.68921       70.48338
N         30.91372       57.32341       70.89695
C         31.66160       58.53492       71.22850
C         33.06107       58.20909       71.73104
O         33.21825       57.43084       72.65893
C         30.90241       59.45934       72.19056
C         29.57799       59.92013       71.55449
C         28.88838       61.05172       72.32480
C         28.48936       60.66285       73.75248
N         27.76647       61.75772       74.39783
H         30.65312       57.20252       69.90584
H         31.78637       59.12455       70.29222
H         31.53838       60.35723       72.35893
H         30.72814       58.96502       73.16796
H         28.88982       59.05378       71.44723
H         29.78780       60.32066       70.53735
H         27.97314       61.33244       71.75894
H         29.55970       61.93848       72.35535
H         29.39779       60.42989       74.34884
H         27.84023       59.76027       73.72364
H         28.36569       62.61461       74.43269
H         26.88706       61.96521       73.87057
H         27.51831       61.47639       75.37329
N         34.14363       58.81769       71.17397
C         35.50427       58.50476       71.58755
C         35.92416       57.14522       71.04260
O         36.22487       56.29066       71.86115
C         36.49272       59.63607       71.22868
C         36.16254       60.90867       72.02919
C         37.08771       62.03465       71.67585
O         36.63802       63.07953       71.23300
O         38.41556       61.90558       71.85873
H         33.98911       59.55278       70.46832
H         35.53736       58.45165       72.70043
H         36.48236       59.86368       70.14612
H         37.52259       59.31511       71.50171
H         36.26087       60.69714       73.11720
H         35.11478       61.22229       71.83111
N         35.98190       56.81074       69.71754
C         35.63106       57.65148       68.59199
H         35.25436       58.64274       68.87442
H         36.52206       57.78438       67.94327
H         34.83322       57.15257       68.00357
H         36.29540       55.85856       69.47659
Ca        37.75481       54.57856       73.56104
O         36.58019       57.02777       74.85320
H         37.24768       57.69034       74.54386
H         35.85730       57.56842       75.25895
O         36.51125       54.54295       76.54361
H         36.32056       55.25082       77.20924
H         36.75014       53.75014       77.08551
O         34.07135       54.78982       74.13321
H         33.18024       54.40783       74.33357
H         34.08484       54.87883       73.14723
O         38.67335       52.09610       74.87838
H         38.11076       51.46892       74.36096
H         39.54470       52.07955       74.40883
O         39.46930       55.28220       75.68812
H         39.47918       56.23860       75.43203
H         40.15616       54.86344       75.11041

Ca 1.0



