%chk=apoCaM-CA-Ng.loop3.water5.frame408.chk
%nprocshared=20
%mem=10GB
%nosave
#b3lyp/svp scf=(tight,noincore,xqc) Test 
#IOP(5/87=12) Density=Current Pop=(MK,readradii) iop(6/33=2) iop(6/42=6)

apoCaM-CA-Ng.loop3.water5.frame408 

   0  1 
C        120.18556       98.39549       73.28454
C        121.54359       97.83287       72.97244
O        122.48143       98.60438       72.83373
H        119.42362       97.59315       73.38149
H        120.22142       98.96751       74.23445
H        119.87105       99.07444       72.46333
N        121.71463       96.48971       72.81702
C        122.98194       95.86686       72.44162
C        123.38318       94.82563       73.48813
O        122.64894       94.64528       74.45177
C        122.77482       95.26571       71.03329
C        124.02950       94.76168       70.38453
O        125.06565       95.59762       70.17849
O        124.11054       93.59873       70.02436
H        120.89213       95.87403       72.92058
H        123.78737       96.63111       72.38237
H        122.38303       96.06732       70.36979
H        122.01061       94.45841       71.08377
N        124.52738       94.08527       73.36575
C        124.88568       93.05265       74.33196
C        125.25624       93.68792       75.65334
O        126.22790       94.42783       75.72692
C        126.01882       92.13951       73.82285
C        125.54821       91.32629       72.60032
C        126.57450       90.31295       72.07472
C        126.91549       89.21619       73.09789
N        127.76664       88.18985       72.49829
H        125.14309       94.23184       72.55698
H        124.00221       92.38980       74.47479
H        126.26573       91.43476       74.64408
H        126.92732       92.73215       73.57711
H        125.30410       92.02192       71.77215
H        124.62079       90.77056       72.86322
H        127.50037       90.83661       71.75304
H        126.12109       89.82745       71.18247
H        125.97730       88.73819       73.45849
H        127.44400       89.65815       73.96926
H        128.65382       88.61579       72.14510
H        127.99700       87.47142       73.22229
H        127.26026       87.72225       71.71122
N        124.46983       93.46371       76.73776
C        124.67552       94.09596       78.03047
C        125.92769       93.54972       78.70840
O        126.12797       92.34269       78.70882
C        123.40770       93.89503       78.88400
C        123.39988       94.79814       80.08247
O        124.32898       94.66866       81.03468
O        122.56069       95.67775       80.18486
H        123.63920       92.86311       76.61524
H        124.75771       95.19552       77.87384
H        123.28452       92.83044       79.17341
H        122.52842       94.17690       78.26214
N        126.79253       94.39088       79.34490
C        128.01833       93.96491       80.00983
C        127.78883       92.88431       81.04625
O        128.42756       91.84542       80.95784
H        126.56603       95.39654       79.37505
H        128.47503       94.84672       80.50982
H        128.74193       93.59592       79.25057
N        126.86927       93.04665       82.03749
C        126.57566       92.02431       83.03963
C        125.32751       91.20842       82.70265
O        125.05680       90.26002       83.42742
C        126.57085       92.63634       84.46163
C        125.72222       93.90472       84.63341
N        125.78389       94.39960       86.00512
O        124.39727       93.74178       84.23696
H        126.31717       93.91079       82.04659
H        127.37848       91.25492       83.03780
H        127.61239       92.94065       84.70218
H        126.26758       91.86226       85.19973
H        125.34640       93.70052       86.64638
H        125.23132       95.28528       86.06697
N        124.56637       91.44882       81.59510
C        123.50720       90.56160       81.12796
C        122.11561       91.14668       81.25512
O        121.18562       90.54849       80.74076
H        124.77545       92.26176       81.00559
H        123.50617       89.59296       81.67216
H        123.71484       90.33343       80.05931
N        121.88591       92.26522       81.99693
C        120.55391       92.81820       82.23375
C        120.65344       93.83541       83.35267
O        121.47778       94.72914       83.28371
C        119.95169       93.46156       80.97138
C        118.62892       94.11161       81.31148
C        117.53987       93.33680       81.74658
C        118.49467       95.50841       81.24569
C        116.34113       93.95156       82.11874
C        117.29699       96.12060       81.62219
C        116.21657       95.34364       82.06356
O        115.05959       95.92283       82.44146
H        122.68513       92.69505       82.47974
H        119.88168       92.00044       82.57313
H        119.80993       92.71180       80.16475
H        120.65675       94.22421       80.59806
H        117.62234       92.25903       81.80986
H        119.32380       96.12641       80.92427
H        115.51183       93.34525       82.46046
H        117.21427       97.19908       81.57927
H        114.93835       96.88298       82.43000
N        119.84297       93.72813       84.43980
C        120.09177       94.47768       85.66158
C        121.35333       93.89081       86.25695
O        122.31011       94.61431       86.50054
C        118.87990       94.35510       86.63630
C        117.57506       94.94018       86.02581
C        119.17632       95.00661       87.99916
C        117.62928       96.43150       85.66890
H        119.10358       93.01121       84.44097
H        120.24570       95.55563       85.44311
H        118.68654       93.27783       86.83711
H        116.74723       94.78800       86.75230
H        117.30860       94.37939       85.10544
H        120.02005       94.48973       88.49394
H        119.43543       96.07937       87.89200
H        118.29874       94.90781       88.67264
H        116.64237       96.74799       85.27160
H        117.85229       97.05264       86.56013
H        118.38288       96.63115       84.88035
N        121.43019       92.54644       86.45213
C        122.60385       91.87060       86.97270
C        122.85158       92.29443       88.40134
O        123.96117       92.70065       88.71217
C        122.41841       90.34451       86.90469
O        122.20024       89.93790       85.57723
H        120.61469       91.96960       86.18876
H        123.48816       92.10939       86.33947
H        121.54904       90.02260       87.51545
H        123.31619       89.83259       87.32541
H        123.07570       89.65087       85.20779
N        121.84423       92.22945       89.32589
C        122.01550       92.51892       90.74714
C        122.50627       93.93749       91.04497
O        122.86120       94.19001       92.18873
C        122.96644       91.47424       91.35290
H        120.91023       91.92039       89.01646
H        121.03841       92.38201       91.26194
H        123.02812       91.60064       92.45425
H        122.57990       90.45242       91.14785
H        123.98964       91.55715       90.93345
N        122.55187       94.91644       90.09339
C        123.18474       96.21383       90.30394
C        122.18436       97.35219       90.27930
O        121.40748       97.45926       89.34093
C        124.23630       96.42836       89.21732
H        122.16574       94.73353       89.15847
H        123.72268       96.23776       91.27646
H        124.74895       97.40252       89.36867
H        124.99274       95.61666       89.25616
H        123.76138       96.42148       88.21534
N        122.20019       98.27680       91.28597
C        121.33045       99.44440       91.38104
C        119.88910       99.00983       91.55376
O        119.02464       99.42920       90.79556
C        121.52670      100.41771       90.19045
C        122.97261      100.92019       90.06877
C        123.11333      101.85782       88.90247
O        123.50318      103.13149       89.10110
O        122.88319      101.46804       87.76828
H        122.88974       98.16224       92.04474
H        121.60438       99.99878       92.30771
H        120.86471      101.30058       90.33800
H        121.22803       99.92413       89.24221
H        123.66730      100.06628       89.91980
H        123.25733      101.45036       91.00382
N        119.56735       98.15412       92.56355
C        118.21897       97.69669       92.82664
H        117.47416       98.15825       92.14505
H        118.17531       96.59463       92.70448
H        117.94384       97.95560       93.87042
H        120.31632       97.79842       93.17715
Ca       123.97440       95.85100       83.46830
O        126.74240       96.54454       82.44606
H        126.92004       96.86564       81.52689
H        127.58404       96.10453       82.72524
O        125.10916       98.75413       83.95181
H        125.48605       99.46668       83.37771
H        125.87857       98.42782       84.48297
O        124.17938       98.21999       80.82235
H        125.05201       98.66537       80.96336
H        124.11716       98.10469       79.84095
O        121.42454       97.71919       82.70108
H        121.18612       98.44300       83.33314
H        121.06072       98.01833       81.83018
O        123.17041       97.33927       85.71128
H        122.26888       97.39432       86.11468
H        123.75376       97.86670       86.31182

Ca 1.0



