%chk=apoCaM-CA-Ng.loop1.water3.frame1329.chk
%nprocshared=20
%mem=10GB
%nosave
#b3lyp/svp scf=(tight,noincore,xqc) Test 
#IOP(5/87=12) Density=Current Pop=(MK,readradii) iop(6/33=2) iop(6/42=6)

apoCaM-CA-Ng.loop1.water3.frame1329 

   0  1 
C         45.28536       42.41969      102.71375
C         46.30174       42.88547      103.71418
O         46.37918       44.08228      103.95360
H         44.26984       42.71510      103.04877
H         45.49556       42.89045      101.72944
H         45.31424       41.31725      102.58717
N         47.14271       41.99480      104.31533
C         48.20449       42.39409      105.23423
C         49.54048       42.14449      104.56806
O         50.41195       41.47686      105.10957
C         48.04458       41.73332      106.62209
C         48.04643       40.22620      106.60625
O         49.00746       39.54851      107.26163
O         47.15652       39.60867      106.04377
H         47.06908       41.00108      104.05462
H         48.16753       43.48890      105.40573
H         47.09201       42.07620      107.07975
H         48.87553       42.08976      107.27012
N         49.74356       42.68761      103.34029
C         50.97486       42.57521      102.57574
C         52.10080       43.33707      103.27174
O         53.12229       42.71487      103.51841
C         50.74410       42.98869      101.09684
C         49.66601       42.07045      100.47303
C         49.34128       42.38467       99.01189
C         48.20212       41.46262       98.53769
N         47.83759       41.72619       97.14828
H         48.95842       43.20934      102.92311
H         51.26679       41.50067      102.51995
H         51.69291       42.86842      100.52951
H         50.42679       44.04681      101.00861
H         48.71817       42.16881      101.04025
H         50.00240       41.01250      100.54566
H         50.24544       42.23183       98.38382
H         49.01285       43.44325       98.92433
H         47.30649       41.62268       99.18089
H         48.51364       40.39871       98.63911
H         48.65359       41.53955       96.52224
H         47.05093       41.09087       96.87981
H         47.52188       42.71730       97.04145
N         52.01384       44.63543      103.70723
C         50.85631       45.51563      103.57191
C         50.15065       45.70112      104.90459
O         50.62505       45.20518      105.92130
C         51.26688       46.85798      102.93348
C         52.19206       47.70040      103.77427
O         52.57201       47.32749      105.01167
O         52.59809       48.75601      103.32601
H         52.82419       44.99843      104.23328
H         50.11256       45.07333      102.89791
H         50.35943       47.46425      102.72344
H         51.76109       46.64261      101.96124
N         48.96407       46.36092      104.95719
C         48.18046       46.49813      106.17276
C         48.81410       47.41165      107.19821
O         49.86829       47.96930      106.96048
H         48.55517       46.72621      104.08247
H         47.99939       45.49648      106.61545
H         47.19548       46.94025      105.91013
N         48.13014       47.64087      108.35900
C         48.52799       48.60098      109.40498
C         47.29775       48.95716      110.27110
O         46.27384       48.30954      110.12752
C         49.66574       48.01884      110.28314
C         50.94935       47.76941      109.53557
O         51.59396       48.79269      108.93254
O         51.40793       46.64063      109.47133
H         47.22520       47.15920      108.42990
H         48.83690       49.54124      108.90578
H         49.30605       47.07100      110.74424
H         49.91772       48.70997      111.10364
N         47.24558       49.99109      111.16952
C         48.27541       50.95088      111.52123
C         48.73164       51.80405      110.36467
O         47.90411       52.27729      109.59708
H         46.34338       50.12415      111.65711
H         49.12462       50.46915      112.04205
H         47.83226       51.65126      112.26272
N         50.04919       52.12180      110.24564
C         50.58200       52.98511      109.19635
C         50.49487       52.26742      107.86666
O         50.96673       51.14613      107.77987
C         52.05184       53.37611      109.49533
C         52.15714       54.21337      110.77953
O         52.55082       54.14045      108.42629
H         50.69815       51.75709      110.96069
H         50.00602       53.93759      109.15977
H         52.65269       52.44246      109.60654
H         53.54178       54.10646      108.48421
H         51.78230       53.65893      111.66352
H         53.21807       54.48202      110.96762
H         51.57198       55.15270      110.67370
N         49.92428       52.87081      106.78375
C         49.78567       52.26768      105.45789
C         51.14129       51.90585      104.86777
O         51.74634       50.93950      105.30981
C         48.82470       51.03748      105.49352
C         47.42434       51.47340      105.99226
C         48.73198       50.35346      104.11182
C         46.49389       50.29999      106.30099
H         49.56541       53.83125      106.89614
H         49.32344       53.03430      104.79592
H         49.23665       50.29830      106.20753
H         46.95061       52.14405      105.24256
H         47.52756       52.03990      106.94049
H         48.33275       51.05780      103.35192
H         49.72790       49.99788      103.77721
H         48.08994       49.45203      104.14685
H         46.94173       49.66635      107.09133
H         45.52512       50.68815      106.67803
H         46.28822       49.68068      105.40664
N         51.65569       52.61882      103.82440
C         52.87417       52.22372      103.12573
C         54.02652       53.18300      103.34151
O         55.08620       52.90636      102.79892
C         52.58562       52.02521      101.60395
C         52.28029       53.34089      100.87797
O         51.50217       51.15618      101.37727
H         51.15196       53.45667      103.49977
H         53.23828       51.25106      103.51979
H         53.49537       51.59131      101.13037
H         51.48814       50.46751      102.08480
H         52.13503       53.13653       99.79594
H         51.35260       53.80696      101.26690
H         53.12010       54.05955      100.97857
N         53.92247       54.31842      104.09626
C         55.05824       55.21804      104.28059
C         56.12861       54.48168      105.08043
O         55.98548       54.38308      106.28975
C         54.60333       56.53620      104.97003
C         55.72496       57.57276      105.06098
O         53.54818       57.10908      104.23570
H         53.01928       54.55801      104.52904
H         55.43922       55.48501      103.26888
H         54.26634       56.31232      106.01221
H         52.70403       56.92405      104.72632
H         56.58087       57.18787      105.65208
H         56.07581       57.84822      104.04327
H         55.34054       58.49105      105.55696
N         57.16799       53.85264      104.44457
C         58.18237       53.01103      105.09009
C         57.57032       51.80271      105.80234
O         56.74876       51.97758      106.68711
C         59.05919       53.81850      106.05915
C         59.77380       54.98000      105.35271
C         60.61417       55.77188      106.35693
C         61.28350       56.98328      105.69888
N         61.98163       57.78957      106.69939
H         57.23984       53.95052      103.42064
H         58.86491       52.63005      104.29652
H         59.82953       53.13869      106.48828
H         58.44188       54.21198      106.89315
H         59.01602       55.66041      104.90685
H         60.42441       54.58918      104.53803
H         61.39309       55.11302      106.80172
H         59.94405       56.13200      107.16698
H         60.50911       57.61348      105.20749
H         62.00310       56.64068      104.92175
H         61.29841       58.14018      107.41045
H         62.72025       57.22082      107.17317
H         62.42734       58.61052      106.23055
N         57.98422       50.53465      105.51538
C         57.44338       49.35545      106.19712
C         55.98146       49.04541      105.75899
O         55.47353       48.04289      106.60548
C         58.33762       48.11132      105.98772
C         59.74754       48.30426      106.55957
C         60.55791       47.05318      106.38308
O         61.58469       47.07352      105.72385
O         60.15736       45.90167      106.95642
H         58.75110       50.41582      104.83701
H         57.43737       49.56203      107.29166
H         58.40487       47.86206      104.90696
H         57.87252       47.24908      106.51525
H         59.68529       48.53773      107.64444
H         60.25421       49.14932      106.04709
N         55.87828       48.54075      104.37578
C         56.35383       49.45206      103.33478
H         57.45954       49.44009      103.28812
H         56.01469       49.08442      102.34235
H         55.96774       50.48023      103.48874
H         54.86702       48.37294      104.19583
Ca        53.52856       48.58145      107.72980
O         54.75950       49.74406      110.24709
H         55.25549       50.03437      109.44048
H         54.86783       48.75967      110.26367
O         54.03624       45.44907      107.58180
H         53.62349       45.88025      108.37098
H         53.27145       45.21631      106.99811
O         54.12146       51.35870      107.07816
H         53.37196       51.97453      107.25563
H         54.25600       51.41851      106.09959

Ca 1.0



