%chk=apoCaM-CA-Ng.loop2.water4.frame1012.chk
%nprocshared=20
%mem=10GB
%nosave
#b3lyp/svp scf=(tight,noincore,xqc) Test 
#IOP(5/87=12) Density=Current Pop=(MK,readradii) iop(6/33=2) iop(6/42=6)

apoCaM-CA-Ng.loop2.water4.frame1012 

   -2  1 
C         25.16053       47.88105       37.52545
C         25.19701       46.37616       37.51858
O         26.20434       45.83800       37.95438
H         25.24723       48.24503       38.57012
H         26.02548       48.25989       36.94117
H         24.24971       48.31320       37.07474
N         24.19389       45.58904       37.03047
C         22.90970       46.05905       36.50927
C         22.27283       44.97816       35.62761
O         23.01486       44.17120       35.08279
C         22.02286       46.57647       37.67618
C         21.69341       45.52323       38.69952
O         22.12994       45.65618       39.96622
O         20.99796       44.56746       38.40586
H         24.37187       44.57569       37.03289
H         23.09488       46.89404       35.80095
H         21.08354       47.02508       37.29483
H         22.55705       47.39082       38.20272
N         20.92694       44.92561       35.37872
C         20.30636       43.95794       34.47163
C         20.49766       42.50042       34.89629
O         20.10324       41.62776       34.13473
C         20.80280       44.18923       33.03276
H         20.29970       45.60985       35.82138
H         19.20981       44.14643       34.44849
H         21.88680       43.98778       32.92217
H         20.25865       43.52625       32.32627
H         20.60272       45.24001       32.73189
N         21.05060       42.15273       36.09763
C         21.27855       40.77580       36.51677
C         20.36665       40.35590       37.65679
O         19.60791       41.15908       38.18223
C         22.78587       40.54895       36.83861
C         23.53482       41.61472       37.63170
O         24.50738       42.13405       37.11038
O         23.23516       41.97877       38.89727
H         21.31404       42.88218       36.76444
H         21.01134       40.07281       35.69765
H         23.30246       40.49153       35.85554
H         22.92925       39.56258       37.32639
N         20.36653       39.04354       38.03343
C         19.60236       38.46270       39.12393
C         20.26405       38.77819       40.47506
O         19.86627       40.03528       40.93706
H         20.94435       38.38654       37.48736
H         19.66489       37.36137       38.99176
H         18.52344       38.73090       39.07720
N         19.98594       37.76500       41.49772
C         20.78491       37.98409       42.72351
C         22.03988       37.10116       42.76305
O         22.20579       36.32022       43.69083
C         19.86443       37.75219       43.93795
C         18.65812       38.66349       43.90537
N         18.79903       40.00833       43.97429
O         17.54017       38.17826       43.81737
H         20.14998       36.79776       41.13101
H         21.14037       39.03802       42.78720
H         20.42000       37.93614       44.88285
H         19.52429       36.69319       43.92823
H         19.73075       40.43748       44.06107
H         17.97235       40.62407       43.94727
N         22.99348       37.21460       41.79454
C         24.26053       36.49371       41.82406
C         24.15896       35.16372       41.10405
O         23.76025       35.18415       39.94843
H         22.85532       37.90469       41.04122
H         24.65502       36.44788       42.85783
H         25.00009       37.09727       41.25807
N         24.50238       33.95738       41.65226
C         25.04652       33.75578       42.99518
C         26.56010       33.98002       43.04659
O         27.10559       33.99916       44.14078
C         24.69769       32.33454       43.51093
C         23.17767       32.14129       43.61187
O         25.24574       31.36549       42.65329
H         24.38344       33.12411       41.05359
H         24.56030       34.46525       43.69508
H         25.13190       32.21546       44.53060
H         25.16322       30.48904       43.11266
H         22.74292       32.89294       44.30419
H         22.69385       32.24471       42.61772
H         22.94923       31.12915       44.00767
N         27.30647       34.12425       41.91015
C         28.75178       34.35169       41.87024
C         29.51719       33.23416       42.60558
O         30.24733       33.54655       43.53652
C         29.09410       35.78459       42.41678
C         28.11483       36.88198       41.92053
C         30.54819       36.18858       42.08952
C         28.02743       37.04795       40.40197
H         26.83874       34.05531       40.99532
H         29.06050       34.33839       40.80303
H         28.98226       35.77826       43.52391
H         28.40336       37.85707       42.37055
H         27.10108       36.64980       42.30204
H         30.71732       36.21852       40.99344
H         30.76825       37.19337       42.50991
H         31.28570       35.48499       42.52092
H         27.28730       37.84231       40.16870
H         29.00328       37.35112       39.97424
H         27.68538       36.11077       39.91813
N         29.39939       31.89981       42.32294
C         28.52695       31.30959       41.31286
C         28.99935       31.56310       39.87847
O         28.40542       32.40235       39.21588
C         28.18844       29.82473       41.64560
C         29.30989       28.83970       41.91304
O         28.99136       27.56488       42.20647
O         30.48395       29.17131       41.93295
H         29.90950       31.26490       42.95431
H         27.53827       31.79219       41.40089
H         27.54107       29.42544       40.83650
H         27.59093       29.82721       42.58364
N         29.99322       30.83112       39.30105
C         30.45088       30.98760       37.92444
C         29.95451       29.80459       37.10429
O         30.08104       28.68095       37.57611
C         31.99159       31.11307       37.93254
C         32.58144       31.25110       36.54757
C         32.68485       30.13326       35.69765
C         33.03710       32.49955       36.09121
C         33.22322       30.26627       34.41536
C         33.56758       32.62935       34.80376
C         33.66043       31.51419       33.96685
H         30.42932       30.07358       39.83181
H         30.05506       31.92406       37.48231
H         32.47625       30.25311       38.44558
H         32.22660       32.02187       38.52952
H         32.35670       29.15608       36.02717
H         32.96735       33.37514       36.72414
H         33.30061       29.40099       33.76945
H         33.90553       33.59589       34.45405
H         34.07306       31.61628       32.97163
N         29.40025       29.94789       35.85626
C         29.35973       31.18136       35.07730
C         28.21400       32.09048       35.46704
O         27.46060       31.77895       36.37835
C         29.21942       30.66940       33.63934
C         28.32171       29.46672       33.82904
C         28.93985       28.82112       35.06759
H         30.30832       31.75239       35.14345
H         28.87697       31.41665       32.89230
H         30.21172       30.28365       33.30849
H         27.30775       29.84883       34.08905
H         28.23149       28.78976       32.95388
H         28.17673       28.20716       35.59347
H         29.82143       28.19609       34.80410
N         28.06118       33.27560       34.80761
C         27.02083       34.24081       35.12946
C         27.32600       35.61550       34.51715
O         26.48254       36.16089       33.81933
C         25.63437       33.68638       34.69453
C         25.58079       33.32915       33.19211
C         24.22159       32.83296       32.79646
O         24.08693       31.71087       32.33531
O         23.14685       33.63512       32.92148
H         28.73584       33.50889       34.06433
H         27.01747       34.40977       36.22909
H         24.85090       34.43689       34.93983
H         25.40175       32.76768       35.27392
H         26.33834       32.54547       32.97169
H         25.81014       34.21000       32.56055
N         28.48702       36.29293       34.76039
C         29.58703       35.79301       35.55997
H         30.37987       36.56794       35.62596
H         29.24473       35.54206       36.58439
H         30.05358       34.90891       35.08443
H         28.59506       37.23453       34.35143
Ca        21.47134       41.34603       40.08873
O         18.81552       44.90497       40.45512
H         17.90874       44.94628       40.85001
H         18.92872       45.77779       40.00198
O         17.72576       42.07075       40.62110
H         17.17623       41.48742       41.20231
H         17.07875       42.47880       39.99249
O         19.81725       43.16898       42.92782
H         20.45503       42.72099       43.53811
H         19.51264       43.96543       43.43091
O         22.88769       43.27128       42.08408
H         23.58915       43.58126       41.45794
H         22.95812       43.88196       42.86020

Ca 1.0



