%chk=apoCaM-CA-Ng.loop2.water4.frame161.chk
%nprocshared=20
%mem=10GB
%nosave
#b3lyp/svp scf=(tight,noincore,xqc) Test 
#IOP(5/87=12) Density=Current Pop=(MK,readradii) iop(6/33=2) iop(6/42=6)

apoCaM-CA-Ng.loop2.water4.frame161 

   -2  1 
C         82.92270       58.07166       44.24471
C         84.21364       57.58873       44.84098
O         84.20862       56.56557       45.51095
H         82.19031       58.27584       45.05350
H         83.06967       59.00383       43.65883
H         82.51176       57.29327       43.56813
N         85.37294       58.27570       44.63115
C         86.66470       57.83664       45.15280
C         86.75671       57.90802       46.68162
O         87.78765       57.50918       47.19149
C         87.79187       58.67609       44.50238
C         89.17047       58.16587       44.82808
O         90.05317       58.96091       45.46220
O         89.49644       57.03124       44.51587
H         85.33986       59.11600       44.03261
H         86.81107       56.78001       44.83325
H         87.69562       59.73635       44.82389
H         87.68144       58.63649       43.39681
N         85.75030       58.40913       47.46516
C         85.74798       58.51127       48.92791
C         85.73287       57.15672       49.63055
O         84.69917       56.81370       50.18380
C         86.85895       59.42945       49.44739
H         84.90655       58.77767       47.00687
H         84.78754       59.00912       49.20037
H         86.76826       60.42973       48.97251
H         86.75986       59.55531       50.54710
H         87.86731       59.02508       49.22956
N         86.82540       56.34106       49.67711
C         86.84141       55.03865       50.33088
C         87.03466       53.92776       49.30328
O         87.41038       52.82724       49.68377
C         87.95309       55.02620       51.40252
C         87.74477       56.09783       52.43870
O         86.73840       56.10313       53.12866
O         88.67642       57.05337       52.61767
H         87.70877       56.63892       49.25307
H         85.88006       54.82041       50.84483
H         88.94075       55.17824       50.91490
H         87.96750       54.04281       51.92105
N         86.70106       54.11571       47.99024
C         86.77616       53.07019       46.98147
C         85.88455       51.90482       47.34297
O         86.36766       50.78510       47.43402
H         86.33878       55.02905       47.68036
H         87.83040       52.73934       46.85819
H         86.42887       53.48457       46.00968
N         84.56542       52.11555       47.60479
C         83.66705       51.06836       48.08031
C         83.08057       50.29232       46.92364
O         82.42007       50.88984       46.08366
C         82.52209       51.69479       48.90090
C         83.05505       52.40343       50.11970
N         83.69570       51.71274       51.09225
O         82.90314       53.61052       50.23215
H         84.21993       53.08788       47.57353
H         84.22030       50.37832       48.75500
H         81.81254       50.90667       49.23492
H         81.96200       52.41411       48.26100
H         83.82175       50.69255       51.02255
H         84.05884       52.19520       51.92556
N         83.25968       48.94299       46.82509
C         82.66374       48.16155       45.75458
C         81.15247       48.10022       45.86003
O         80.58372       48.53901       46.85111
H         83.84722       48.45423       47.51742
H         83.04448       47.11778       45.78442
H         82.96296       48.60941       44.78200
N         80.43584       47.56148       44.83302
C         78.97309       47.43826       44.81775
C         78.22187       48.78109       44.87676
O         76.99954       48.74965       44.90440
C         78.50254       46.61548       43.57885
C         78.80307       47.28292       42.22269
O         79.02722       45.30942       43.62378
H         80.97772       47.20166       44.03458
H         78.67236       46.85629       45.71721
H         77.39720       46.50888       43.63512
H         79.96799       45.33217       43.31049
H         78.30099       48.26726       42.15657
H         79.89175       47.42526       42.06351
H         78.41544       46.64646       41.39925
N         78.86591       49.98444       44.91406
C         78.19839       51.28701       44.97938
C         78.50638       51.96566       46.31440
O         79.19973       51.37570       47.13248
C         78.63312       52.16189       43.75619
C         80.17028       52.40607       43.72137
C         78.12954       51.51832       42.45319
C         80.62027       53.38033       42.63426
H         79.88852       49.99978       44.90812
H         77.09255       51.17192       44.94473
H         78.12804       53.14658       43.83663
H         80.71966       51.45588       43.55820
H         80.49134       52.83336       44.69502
H         78.62547       50.54296       42.28096
H         77.03079       51.36121       42.50510
H         78.32072       52.17216       41.57940
H         80.40263       52.98545       41.62157
H         80.12435       54.36389       42.76873
H         81.71979       53.52189       42.70702
N         78.04547       53.22665       46.58924
C         78.40901       53.95758       47.80255
C         77.20013       54.63804       48.47834
O         77.40322       55.33786       49.45988
C         79.52088       54.95633       47.41113
C         80.31040       55.51970       48.56630
O         81.24647       56.26733       48.33442
O         80.05107       55.16900       49.84146
H         77.51885       53.73454       45.86442
H         78.86446       53.25775       48.53750
H         79.09471       55.77299       46.79001
H         80.26882       54.40786       46.79545
N         75.91250       54.44871       48.05276
C         74.75040       55.03876       48.72753
C         74.67162       56.54443       48.50157
O         74.56626       56.94342       47.35078
C         73.45027       54.36142       48.23049
C         72.21125       54.90109       48.91492
C         71.63951       54.21168       49.99744
C         71.61103       56.09607       48.47334
C         70.49899       54.71503       50.63230
C         70.46769       56.59113       49.10562
C         69.91339       55.90287       50.18641
H         75.73655       53.80582       47.26778
H         74.81595       54.79422       49.80816
H         73.54945       53.27720       48.45858
H         73.32828       54.44500       47.12799
H         72.08257       53.29209       50.35791
H         72.01803       56.64236       47.63324
H         70.06860       54.18390       51.47101
H         70.01085       57.50829       48.75585
H         69.02902       56.28912       50.67645
N         74.64487       57.45005       49.53344
C         74.43556       58.88105       49.34840
C         75.66613       59.60715       48.81961
O         75.59112       60.81758       48.66055
C         74.01828       59.35411       50.74574
C         74.84645       58.45967       51.63911
C         74.70641       57.10741       50.94131
H         73.58597       59.08386       48.65830
H         74.10355       60.44709       50.92842
H         72.95411       59.06181       50.90704
H         75.90312       58.79880       51.55152
H         74.56191       58.45506       52.71284
H         75.58309       56.47839       51.20332
H         73.75836       56.59461       51.21750
N         76.80927       58.94263       48.48446
C         77.97766       59.58292       47.89155
C         78.18096       59.11414       46.45401
O         79.07900       59.62739       45.80030
C         79.21926       59.21344       48.71685
C         79.16105       59.71415       50.16869
C         80.24272       59.08606       51.00556
O         80.32874       59.35825       52.19166
O         81.05981       58.15610       50.47333
H         76.86330       57.92493       48.62176
H         77.85463       60.68810       47.86059
H         80.14395       59.61329       48.24402
H         79.27599       58.10405       48.71311
H         78.19536       59.42543       50.63352
H         79.24815       60.82206       50.18249
N         77.40096       58.14859       45.88668
C         77.57905       57.70505       44.52386
H         77.40152       58.55080       43.82736
H         78.60507       57.30523       44.38456
H         76.84951       56.89757       44.29548
H         76.65777       57.69176       46.42282
Ca        82.30188       56.77524       51.73849
O         80.30668       56.21873       54.09068
H         80.14248       57.04628       53.57356
H         80.96281       56.48439       54.78278
O         83.71108       58.52165       53.68317
H         83.11623       58.17298       54.39389
H         83.10200       58.99247       53.06015
O         83.93259       54.69663       53.41602
H         84.62505       53.99050       53.38940
H         84.25500       55.37506       52.77257
O         80.97951       53.53433       52.51116
H         80.72036       53.54205       53.46616
H         81.05063       52.57360       52.28309

Ca 1.0



