%chk=apoCaM-CA-Ng.loop3.water5.frame1013.chk
%nprocshared=20
%mem=10GB
%nosave
#b3lyp/svp scf=(tight,noincore,xqc) Test 
#IOP(5/87=12) Density=Current Pop=(MK,readradii) iop(6/33=2) iop(6/42=6)

apoCaM-CA-Ng.loop3.water5.frame1013 

   0  1 
C         36.10214       25.75695       11.31938
C         35.53762       26.12443        9.97995
O         35.00951       27.21905        9.84531
H         36.89908       26.47544       11.60040
H         35.29232       25.79164       12.07861
H         36.52942       24.73206       11.31142
N         35.59862       25.24423        8.94208
C         35.01014       25.50190        7.63724
C         33.86769       24.52793        7.42327
O         32.74137       24.98484        7.29596
C         36.09764       25.54843        6.53107
C         37.07039       24.39596        6.46258
O         36.71787       23.28747        6.10350
O         38.37324       24.61193        6.72668
H         36.05144       24.32991        9.09333
H         34.54850       26.51548        7.61160
H         36.70923       26.45301        6.74139
H         35.62298       25.69866        5.53700
N         34.05926       23.17985        7.40920
C         32.97646       22.21581        7.28959
C         32.97763       21.67044        5.87732
O         33.15479       20.47609        5.67589
C         33.17193       21.09117        8.32986
C         33.34546       21.60714        9.76268
C         33.48278       20.42737       10.72986
C         33.70429       20.90940       12.16827
N         33.40875       19.83970       13.11974
H         35.00532       22.80139        7.51221
H         31.98988       22.70084        7.46444
H         34.09085       20.51817        8.07328
H         32.29920       20.40249        8.27631
H         32.45406       22.20695       10.05013
H         34.24901       22.25148        9.82953
H         34.32667       19.75827       10.44036
H         32.53903       19.84562       10.67000
H         33.02862       21.76253       12.39210
H         34.75630       21.26015       12.28440
H         33.98458       18.99021       12.92189
H         33.59985       20.17834       14.08972
H         32.39207       19.59778       13.05124
N         32.80175       22.52713        4.83346
C         32.90629       22.12093        3.43942
C         34.01895       22.92008        2.78725
O         33.78112       23.61708        1.80973
C         31.53729       22.25437        2.73050
C         30.97016       23.65017        2.63685
O         29.89522       23.82067        2.08561
O         31.63172       24.71535        3.12580
H         32.62521       23.52117        5.04001
H         33.18858       21.04816        3.36701
H         30.80504       21.61703        3.27253
H         31.63910       21.85693        1.69759
N         35.27917       22.87068        3.30550
C         36.37193       23.68428        2.79756
C         37.48398       22.84863        2.22190
O         37.39882       21.62926        2.26398
H         35.46622       22.25015        4.10752
H         36.77538       24.29381        3.62640
H         36.00681       24.36303        2.00137
N         38.56524       23.41382        1.61140
C         38.76521       24.85219        1.43476
C         39.38884       25.44571        2.69363
O         40.45260       24.97789        3.07320
C         39.68181       25.07517        0.20354
C         39.84011       26.51147       -0.24793
N         40.53064       26.78389       -1.37825
O         39.33718       27.43010        0.37738
H         39.24785       22.77088        1.17837
H         37.80353       25.32631        1.15840
H         39.22262       24.52980       -0.64951
H         40.68815       24.64004        0.38962
H         40.95244       26.02443       -1.93202
H         40.62900       27.75510       -1.71018
N         38.84852       26.48480        3.39631
C         37.59088       27.13777        3.06218
C         37.32506       28.37780        3.87770
O         38.15031       28.78249        4.69043
H         39.38989       26.82481        4.20731
H         36.75209       26.43447        3.20790
H         37.59331       27.46800        2.00825
N         36.15742       29.04881        3.69485
C         35.84719       30.28662        4.40026
C         34.37339       30.64729        4.27237
O         33.67914       30.10578        3.41825
C         36.72882       31.42384        3.81642
C         36.63585       32.73164        4.55788
C         36.09469       33.87102        3.93780
C         37.11660       32.82773        5.87289
C         36.02991       35.08516        4.62779
C         37.05779       34.04396        6.55812
C         36.51275       35.17746        5.93747
O         36.45112       36.35711        6.58698
H         35.47128       28.63453        3.04343
H         36.04613       30.10913        5.48134
H         36.43204       31.56128        2.75192
H         37.79993       31.13247        3.81321
H         35.72076       33.82151        2.92260
H         37.54713       31.96266        6.36149
H         35.60775       35.95617        4.14224
H         37.43930       34.10420        7.56927
H         36.78032       36.46366        7.49089
N         33.81379       31.54727        5.12513
C         32.40639       31.93660        5.05233
C         32.07851       32.60891        3.72760
O         32.96250       32.84470        2.91650
C         31.97716       32.82417        6.26969
C         31.98081       32.04223        7.60652
C         32.82793       34.10321        6.39887
C         30.94335       30.91245        7.64090
H         34.40955       31.92825        5.87293
H         31.79455       31.01369        5.05738
H         30.93044       33.16283        6.12253
H         31.70670       32.74288        8.42521
H         32.99001       31.63321        7.82572
H         32.79454       34.69340        5.45986
H         32.42852       34.73981        7.21700
H         33.88508       33.88262        6.64601
H         30.93581       30.44352        8.64621
H         29.92743       31.31413        7.43453
H         31.17037       30.11636        6.90678
N         30.78072       32.91058        3.44411
C         30.33126       33.46264        2.17515
C         29.25489       32.56839        1.57855
O         28.87177       31.58553        2.19696
C         29.80336       34.88559        2.41053
O         28.73423       34.86660        3.31765
H         30.06007       32.72131        4.15615
H         31.17226       33.52632        1.45054
H         29.47039       35.34037        1.45296
H         30.64148       35.49552        2.82038
H         28.61241       35.80276        3.62309
N         28.70773       32.87385        0.36841
C         27.61571       32.13443       -0.25374
C         26.34102       32.20329        0.57871
O         25.55917       31.26209        0.54868
C         28.02928       30.69032       -0.59033
H         29.06414       33.69693       -0.13948
H         27.38473       32.63698       -1.21888
H         28.93910       30.69447       -1.22635
H         28.23812       30.10010        0.32586
H         27.21850       30.17681       -1.15012
N         26.04987       33.31355        1.32629
C         24.80755       33.49742        2.07438
C         24.57460       32.44999        3.16115
O         23.48341       32.42859        3.71446
C         23.62281       33.57608        1.10101
H         26.72632       34.09094        1.35056
H         24.84215       34.48551        2.58573
H         22.69024       33.82397        1.65185
H         23.80506       34.38751        0.36373
H         23.46659       32.62369        0.55707
N         25.55479       31.58681        3.56311
C         25.36052       30.57952        4.60272
C         24.87328       31.22511        5.88632
O         23.79714       30.86805        6.34655
C         26.67251       29.78977        4.82024
C         26.54845       28.71482        5.90977
C         27.80501       27.90191        6.00669
O         28.86926       28.43664        6.27511
O         27.75800       26.57171        5.80462
H         26.48564       31.65629        3.13309
H         24.58671       29.85681        4.25591
H         27.49669       30.48673        5.09084
H         26.93867       29.29697        3.85805
H         25.69961       28.03879        5.67108
H         26.35770       29.19167        6.89528
N         25.60025       32.19702        6.50257
C         25.15980       32.86998        7.70856
H         24.17752       32.49725        8.07011
H         25.90845       32.71653        8.51233
H         25.06120       33.95669        7.50513
H         26.50000       32.48912        6.09332
Ca        30.62945       25.99442        5.50819
O         29.49020       26.97491        2.79716
H         30.36513       26.85394        2.35034
H         29.16687       27.85059        2.46884
O         31.51984       27.62332        7.84409
H         31.61681       27.92574        8.78116
H         32.37803       27.86506        7.41316
O         32.99790       27.48214        4.51423
H         32.19675       28.02779        4.30925
H         33.20769       27.02166        3.66336
O         29.83656       24.40888        7.96918
H         30.35590       24.50713        8.80631
H         28.88991       24.46572        8.25234
O         28.78420       23.71720        5.06787
H         28.22858       23.51433        4.27436
H         28.65032       22.94521        5.67229

Ca 1.0



