%chk=apoCaM-CA-Ng.loop2.water4.frame1077.chk
%nprocshared=20
%mem=10GB
%nosave
#b3lyp/svp scf=(tight,noincore,xqc) Test 
#IOP(5/87=12) Density=Current Pop=(MK,readradii) iop(6/33=2) iop(6/42=6)

apoCaM-CA-Ng.loop2.water4.frame1077 

   -2  1 
C         40.23976       52.04677       37.36723
C         39.14382       53.06927       37.47424
O         38.44363       53.27034       36.49245
H         41.22698       52.51754       37.54870
H         40.06431       51.23430       38.10349
H         40.24930       51.59577       36.35120
N         38.87754       53.75286       38.62383
C         39.61737       53.62139       39.87907
C         40.05415       55.00290       40.36611
O         40.58308       55.74168       39.54762
C         38.80904       52.72641       40.86347
C         37.35222       53.09903       41.06809
O         36.58729       52.27578       41.54258
O         36.85989       54.25055       40.58000
H         38.07713       54.39846       38.59931
H         40.56791       53.07659       39.70032
H         39.32978       52.59704       41.83668
H         38.79321       51.72259       40.38697
N         39.92455       55.41125       41.66863
C         40.36813       56.71405       42.17801
C         39.51686       57.87667       41.67961
O         39.86230       59.01658       41.95934
C         41.87313       56.93781       41.94148
H         39.51948       54.76727       42.36025
H         40.23887       56.71554       43.28301
H         42.13188       57.02443       40.86838
H         42.20045       57.87599       42.44023
H         42.45094       56.10043       42.38741
N         38.33724       57.66125       41.03056
C         37.40537       58.71785       40.65432
C         36.12160       58.56462       41.45842
O         35.62936       57.45448       41.60565
C         37.18281       58.77851       39.12128
C         36.69012       57.54533       38.41551
O         36.50941       57.57701       37.20938
O         36.46854       56.40315       39.06982
H         38.03936       56.69438       40.85815
H         37.82286       59.71808       40.90191
H         38.15391       59.04364       38.65153
H         36.46153       59.59793       38.91244
N         35.53473       59.65814       42.03177
C         34.35405       59.61089       42.88878
C         33.08310       59.08525       42.23941
O         32.07259       59.04646       42.92684
H         35.96632       60.58336       41.88539
H         34.14059       60.64248       43.24734
H         34.58166       58.98438       43.77765
N         33.04558       58.64795       40.94994
C         31.86496       58.09526       40.30097
C         32.11568       56.59613       39.96628
O         33.33918       56.47712       39.30091
C         31.58162       58.92839       39.02570
C         31.28147       60.37188       39.33567
N         30.17357       60.71364       40.03341
O         32.03782       61.24389       38.93541
H         33.89051       58.70063       40.36981
H         30.97266       58.13450       40.96334
H         30.71422       58.52113       38.46494
H         32.47550       58.87516       38.36548
H         29.51452       59.99361       40.36293
H         29.96471       61.70364       40.23045
N         31.02419       56.09606       39.11786
C         31.20164       54.77338       38.49516
C         30.52957       53.64003       39.24176
O         29.99981       53.87074       40.31919
H         30.07788       56.22714       39.54479
H         32.26996       54.54206       38.30503
H         30.69153       54.84407       37.52689
N         30.47227       52.36628       38.74029
C         31.05524       51.93012       37.46617
C         30.44709       52.66815       36.28465
O         29.24279       52.61202       36.07716
C         30.90009       50.40425       37.25480
C         31.73373       49.60163       38.25606
O         29.54978       50.02274       37.36087
H         29.98701       51.66280       39.31834
H         32.14421       52.13777       37.49026
H         31.30782       50.14532       36.24629
H         29.22777       49.79633       36.44991
H         31.62381       48.51643       38.04725
H         32.80825       49.86738       38.15268
H         31.41473       49.79717       39.30007
N         31.25630       53.41833       35.48451
C         30.77441       54.23871       34.38087
C         30.26846       53.34603       33.24614
O         31.04705       52.51216       32.80592
C         31.90978       55.18392       33.87198
C         32.45197       56.12547       34.99032
C         31.45223       56.01819       32.65944
C         31.41457       57.06880       35.61265
H         32.26207       53.43835       35.70646
H         29.99986       54.89911       34.77846
H         32.76473       54.55972       33.52752
H         33.27063       56.74445       34.56350
H         32.90224       55.53362       35.81291
H         32.27401       56.68372       32.32019
H         31.18609       55.36346       31.80454
H         30.56476       56.63141       32.90743
H         30.94436       57.71329       34.85608
H         30.60241       56.52686       36.12569
H         31.91608       57.71228       36.36103
N         29.03597       53.45470       32.65310
C         27.98583       54.41979       32.97965
C         27.83518       55.45140       31.87040
O         28.49238       55.34335       30.84250
C         26.68029       53.68574       33.34813
C         26.18378       52.75939       32.27285
O         26.08561       51.43859       32.52110
O         25.86059       53.19332       31.17929
H         28.84625       52.82101       31.85971
H         28.24059       55.02099       33.85961
H         25.88326       54.41800       33.59673
H         26.87865       53.08385       34.26248
N         27.07223       56.56110       32.08637
C         27.06586       57.72018       31.19636
C         26.30172       58.86549       31.86339
O         25.13824       58.63590       32.17399
C         26.42991       57.44143       29.81216
C         26.79792       58.59054       28.89569
C         25.92309       59.66892       28.67929
C         28.07964       58.62065       28.31394
C         26.33240       60.76034       27.90183
C         28.47818       59.70538       27.52961
C         27.60760       60.77791       27.32834
H         26.57651       56.63079       32.98953
H         28.11572       57.98780       31.00014
H         25.32831       57.32587       29.91481
H         26.80620       56.50501       29.35002
H         24.94244       59.68201       29.13706
H         28.77351       57.80506       28.47764
H         25.66702       61.60098       27.75410
H         29.46731       59.71923       27.08941
H         27.92524       61.62508       26.73372
N         26.80884       60.12732       32.07663
C         28.10651       60.63002       31.61894
C         29.31110       60.12094       32.42196
O         29.43012       58.92051       32.59924
C         27.92979       62.16451       31.68721
C         26.43114       62.33768       31.53417
C         25.94685       61.22970       32.45276
H         28.20693       60.33990       30.55377
H         28.12698       62.52755       32.71975
H         28.56548       62.73900       30.98087
H         26.05561       63.34795       31.80314
H         26.13743       62.09946       30.48836
H         26.15432       61.50050       33.51346
H         24.85865       61.03563       32.33461
N         30.25885       60.96636       32.93752
C         31.40260       60.50178       33.70874
C         32.71482       61.03573       33.13802
O         33.45875       61.68506       33.85794
C         31.18501       60.80635       35.21915
C         31.04829       62.28565       35.64604
C         29.81696       62.96177       35.11687
O         29.91520       63.97193       34.43792
O         28.59705       62.46886       35.40494
H         30.19402       61.97773       32.78310
H         31.48739       59.40270       33.64027
H         32.04416       60.37283       35.77638
H         30.27512       60.26238       35.55848
H         31.95159       62.85964       35.35853
H         30.97529       62.31554       36.75256
N         33.11973       60.77997       31.86065
C         32.35700       60.01043       30.90208
H         31.40137       60.52084       30.67005
H         32.92822       59.92414       29.95335
H         32.16563       58.98903       31.29070
H         34.03465       61.14614       31.55388
Ca        34.68464       54.90221       40.32061
O         35.35429       53.76913       43.64168
H         34.68565       53.80457       44.37029
H         36.22211       53.93569       44.08835
O         34.45444       52.78173       38.32979
H         35.31809       52.40649       38.63342
H         34.68958       53.64782       37.91083
O         32.75057       53.17971       41.86843
H         32.32849       52.46936       41.32324
H         32.02777       53.83729       42.02719
O         33.21262       56.05770       43.27015
H         32.24964       56.28100       43.32602
H         33.56392       56.24384       44.17682

Ca 1.0



