%chk=apoCaM-CA-Ng.loop3.water5.frame1103.chk
%nprocshared=20
%mem=10GB
%nosave
#b3lyp/svp scf=(tight,noincore,xqc) Test 
#IOP(5/87=12) Density=Current Pop=(MK,readradii) iop(6/33=2) iop(6/42=6)

apoCaM-CA-Ng.loop3.water5.frame1103 

   0  1 
C         29.12878        9.94615       46.26440
C         29.16389       11.43647       46.44307
O         28.20364       12.09246       46.06762
H         30.06781        9.47201       46.61982
H         28.28060        9.52435       46.84508
H         28.99029        9.70041       45.19113
N         30.22884       12.03800       47.04615
C         30.30444       13.47343       47.29729
C         31.59119       14.09744       46.76645
O         31.86880       15.23319       47.12780
C         30.07909       13.76307       48.79744
C         31.11586       13.22303       49.74255
O         30.97237       13.43802       51.06323
O         32.08435       12.60316       49.34000
H         30.99812       11.44392       47.38957
H         29.46706       14.00489       46.79278
H         29.09118       13.34071       49.08360
H         30.02437       14.86397       48.94316
N         32.36325       13.47893       45.81319
C         33.54001       14.09407       45.17989
C         33.18409       15.37066       44.39478
O         34.07299       16.03386       43.88062
C         34.66095       14.32730       46.21854
C         34.94419       13.03732       47.01111
C         36.11989       13.20117       47.98011
C         36.32616       11.96904       48.88283
N         35.21948       11.77971       49.82545
H         32.09650       12.54227       45.47750
H         33.95210       13.37288       44.43963
H         34.37897       15.13128       46.93114
H         35.58182       14.65016       45.68408
H         35.16742       12.19869       46.31500
H         34.02902       12.78943       47.57959
H         35.96724       14.09225       48.62593
H         37.04110       13.36014       47.37782
H         37.25819       12.12801       49.46732
H         36.45996       11.05162       48.26707
H         34.35098       11.49247       49.32511
H         35.46483       11.01658       50.49598
H         35.04994       12.65851       50.36793
N         31.88083       15.74450       44.25643
C         31.34023       16.90535       43.55554
C         29.87828       16.99779       44.00217
O         28.94891       16.86028       43.22074
C         31.59511       16.77808       42.02962
C         31.27186       15.41922       41.44602
O         30.74576       14.54964       42.12235
O         31.69827       15.10267       40.20816
H         31.16759       15.12686       44.65327
H         31.82450       17.84074       43.91625
H         32.68753       16.91622       41.88007
H         31.08476       17.59055       41.46930
N         29.66665       17.13098       45.34653
C         28.38769       16.96959       46.03723
C         28.54427       17.22839       47.54133
O         29.58372       17.73360       47.94308
H         30.51427       17.27441       45.91471
H         28.05435       15.92337       45.87243
H         27.62575       17.66681       45.63077
N         27.59204       16.94915       48.47862
C         26.31110       16.27991       48.28487
C         26.26095       15.07465       49.22209
O         26.56257       15.25394       50.39598
C         25.16711       17.22918       48.68644
C         25.14225       18.48176       47.85167
N         25.25895       19.69831       48.43388
O         25.00362       18.39948       46.64046
H         27.81482       17.22456       49.44990
H         26.15728       15.98451       47.22759
H         25.26793       17.49848       49.76173
H         24.19611       16.70229       48.55871
H         25.36940       19.78880       49.45476
H         25.23372       20.55597       47.86359
N         25.86665       13.82478       48.85274
C         25.36855       13.47305       47.53039
C         24.92972       12.01817       47.45136
O         25.06021       11.28535       48.42101
H         25.88172       13.10850       49.59440
H         26.15709       13.65354       46.77186
H         24.48698       14.10993       47.30189
N         24.37851       11.53482       46.29965
C         23.93936       10.14672       46.15422
C         24.71241        9.47091       45.02491
O         25.42876       10.14135       44.29582
C         22.41189       10.13590       45.91772
C         21.79787        8.75605       45.91655
C         21.18178        8.25439       44.75850
C         21.82460        7.96196       47.07746
C         20.61187        6.97787       44.75753
C         21.25153        6.68637       47.07461
C         20.64430        6.18952       45.91239
O         20.08981        4.96060       45.89334
H         24.25850       12.17547       45.50095
H         24.15912        9.58612       47.08749
H         22.20609       10.65899       44.95810
H         21.91296       10.71637       46.72525
H         21.14600        8.84831       43.85417
H         22.28562        8.33026       47.98543
H         20.14416        6.60130       43.85683
H         21.27939        6.08599       47.97552
H         20.09096        4.38281       46.66984
N         24.66369        8.11545       44.87101
C         25.44394        7.40189       43.85675
C         24.96182        7.69418       42.43715
O         23.93785        8.34276       42.26477
C         25.46700        5.86097       44.13511
C         26.19170        5.57589       45.47599
C         24.05899        5.22361       44.08943
C         26.50560        4.09545       45.69730
H         24.11976        7.57893       45.55653
H         26.49532        7.76016       43.92244
H         26.07640        5.38761       43.33651
H         25.60030        5.95872       46.33511
H         27.16913        6.10615       45.46854
H         24.11869        4.12138       44.19024
H         23.40767        5.59804       44.90463
H         23.56398        5.43283       43.11885
H         27.07691        3.97971       46.64260
H         25.58286        3.48803       45.77987
H         27.12981        3.70995       44.86267
N         25.66770        7.21395       41.36674
C         25.25054        7.36085       39.97364
C         26.30280        8.08076       39.12908
O         27.35060        8.45235       39.63744
C         24.95285        5.96253       39.40144
O         26.11432        5.17723       39.40350
H         26.53195        6.68052       41.54671
H         24.31153        7.95360       39.91236
H         24.56002        6.04962       38.36478
H         24.17215        5.47642       40.02807
H         25.88495        4.34328       38.91687
N         26.05532        8.30952       37.80500
C         26.92825        9.00184       36.85967
C         28.25925        8.29750       36.63845
O         29.28753        8.95946       36.62716
C         27.10412       10.47546       37.26049
H         25.15664        7.98302       37.42048
H         26.41094        8.98753       35.87524
H         26.11249       10.96237       37.36328
H         27.64857       10.56607       38.22470
H         27.67741       11.01877       36.48032
N         28.31265        6.94548       36.44436
C         29.54471        6.19040       36.20725
C         30.66518        6.65875       37.12305
O         31.74655        6.98421       36.64738
C         29.93979        6.28611       34.72559
H         27.43758        6.40576       36.52261
H         29.33489        5.11886       36.42060
H         30.83784        5.66245       34.52328
H         29.11097        5.91556       34.08628
H         30.16270        7.33783       34.44459
N         30.43148        6.81828       38.45400
C         31.41278        7.43162       39.33663
C         32.60944        6.50702       39.46953
O         33.71820        6.90591       39.14160
C         30.77310        7.74170       40.70846
C         31.61035        8.67172       41.60375
C         31.52452       10.13393       41.21454
O         31.96535       10.60038       40.02959
O         31.04958       10.92973       42.01005
H         29.49787        6.57914       38.82280
H         31.71271        8.40133       38.88481
H         30.59726        6.78000       41.23516
H         29.78254        8.22639       40.57460
H         32.66616        8.33264       41.65129
H         31.18619        8.59558       42.62898
N         32.43741        5.22817       39.90994
C         33.52677        4.28162       40.00478
H         34.29560        4.65087       40.71465
H         33.14422        3.30331       40.36887
H         33.98260        4.12746       39.00342
H         31.49308        4.90207       40.16575
Ca        31.92287       12.87026       39.84597
O         31.00948       14.69869       37.12819
H         30.47218       15.47548       37.42426
H         31.94010       15.03470       37.09684
O         33.88225       12.93653       37.59172
H         33.76181       12.85898       36.61214
H         34.83671       13.17109       37.70994
O         34.27352       13.38909       41.69096
H         35.03182       13.61508       41.09606
H         34.21639       12.40098       41.65741
O         30.57659       11.85339       37.45496
H         29.87542       11.99419       36.77147
H         30.43473       10.92986       37.77911
O         28.86665       13.56372       39.65218
H         28.48439       12.80767       40.16445
H         28.75228       14.34820       40.24523

Ca 1.0



