%chk=apoCaM-CA-Ng.loop2.water3.frame639.chk
%nprocshared=20
%mem=10GB
%nosave
#b3lyp/svp scf=(tight,noincore,xqc) Test 
#IOP(5/87=12) Density=Current Pop=(MK,readradii) iop(6/33=2) iop(6/42=6)

apoCaM-CA-Ng.loop2.water3.frame639 

   -2  1 
C         70.84411       30.79996        9.57176
C         69.49725       31.35701        9.21183
O         68.49346       30.69163        9.42316
H         71.34645       31.47040       10.30020
H         70.75007       29.78782       10.01938
H         71.47046       30.72594        8.65700
N         69.40886       32.58846        8.64008
C         68.14883       33.18831        8.21729
C         67.21920       33.42189        9.39573
O         67.59928       34.10667       10.33429
C         68.41340       34.52915        7.50138
C         67.13842       35.15526        7.00169
O         66.76216       36.36807        7.44990
O         66.43694       34.56599        6.19458
H         70.28670       33.10536        8.47120
H         67.66829       32.50937        7.47741
H         69.08388       34.35776        6.63157
H         68.92130       35.23123        8.19882
N         65.94223       32.94831        9.35835
C         64.95529       33.23884       10.39540
C         65.24913       32.45967       11.67314
O         65.98553       31.48582       11.59912
C         63.56336       32.86069        9.85909
H         65.64214       32.43481        8.51485
H         64.97345       34.33284       10.58428
H         63.52371       31.77565        9.62416
H         62.74210       33.08115       10.56024
H         63.36190       33.43237        8.92793
N         64.68605       32.75700       12.88492
C         63.85346       33.92751       13.16457
C         64.65744       35.21960       13.13066
O         65.87554       35.18621       13.01526
C         63.13453       33.76853       14.53137
C         64.06611       33.63546       15.70800
O         64.83040       34.54017       16.00088
O         64.03644       32.52122       16.46392
H         64.87614       32.10206       13.66014
H         63.04778       33.99815       12.41730
H         62.49363       32.86168       14.48076
H         62.46026       34.63192       14.71549
N         64.00758       36.40692       13.27531
C         64.66615       37.69107       13.41512
C         64.18050       38.70589       12.39321
O         63.50786       38.32400       11.44634
H         62.97998       36.40359       13.35930
H         65.77516       37.61514       13.37369
H         64.37782       38.05234       14.42464
N         64.41337       40.04661       12.54181
C         65.11379       40.61051       13.68723
C         66.15978       41.61508       13.24133
O         66.17849       42.73434       13.73723
C         64.06038       41.19115       14.65989
C         64.61671       41.50827       16.02468
N         65.10270       40.51945       16.81308
O         64.59384       42.65751       16.43784
H         63.98642       40.69892       11.86503
H         65.67151       39.81805       14.21903
H         63.25714       40.43856       14.81975
H         63.59094       42.08801       14.19830
H         65.10555       39.53971       16.49276
H         65.45810       40.72763       17.75747
N         67.09368       41.26855       12.30743
C         68.20174       42.14174       11.95557
C         69.24169       42.20974       13.06361
O         70.17400       42.98798       12.93990
H         67.02902       40.35044       11.84277
H         67.80711       43.15540       11.71801
H         68.71452       41.75592       11.04922
N         69.14753       41.41226       14.16992
C         70.06313       41.44951       15.30357
C         70.66242       40.06633       15.54083
O         70.36511       39.13674       14.80764
C         69.25716       41.89392       16.55481
C         68.69974       43.31066       16.39446
O         68.20390       40.99066       16.78251
H         68.37166       40.74336       14.25010
H         70.89337       42.16934       15.13593
H         69.93025       41.91140       17.43949
H         67.93038       41.09327       17.73056
H         68.14673       43.60010       17.31286
H         69.53182       44.03008       16.24187
H         68.00437       43.37255       15.53367
N         71.46422       39.86145       16.62587
C         71.89640       38.54688       17.08072
C         71.06684       38.24743       18.31857
O         71.13589       39.00880       19.27233
C         73.42364       38.55663       17.38813
C         73.87651       37.21539       18.02502
C         74.21964       38.86207       16.10380
C         75.32355       37.23362       18.52366
H         71.68575       40.66005       17.23541
H         71.68826       37.76631       16.31560
H         73.61794       39.36838       18.12445
H         73.73792       36.38555       17.30291
H         73.25185       37.00020       18.91749
H         73.89842       39.82852       15.66234
H         75.30414       38.95486       16.31281
H         74.06727       38.05937       15.35028
H         76.04521       37.37109       17.69470
H         75.45877       38.04697       19.26910
H         75.55504       36.26562       19.01642
N         70.23187       37.16623       18.35251
C         69.33681       36.88072       19.47066
C         69.71530       35.60473       20.21116
O         69.06700       35.32873       21.21297
C         67.87187       36.82581       18.96471
C         67.65930       35.66496       18.03195
O         67.82762       34.52357       18.42793
O         67.37176       35.86423       16.73705
H         70.20658       36.53506       17.54333
H         69.39916       37.70094       20.21773
H         67.64312       37.77884       18.43838
H         67.16979       36.72870       19.82021
N         70.74077       34.78535       19.81755
C         71.16500       33.65159       20.63165
C         71.72630       32.53097       19.75729
O         72.93191       32.32940       19.77211
C         72.13528       34.17255       21.72642
C         72.26113       33.23390       22.91759
C         72.94395       32.00403       22.84781
C         71.66961       33.60427       24.14309
C         73.02356       31.17043       23.96790
C         71.74867       32.76573       25.25758
C         72.42452       31.54885       25.17011
H         71.31954       35.03782       19.00265
H         70.29979       33.25233       21.20237
H         71.68571       35.11425       22.11147
H         73.12562       34.45834       21.31111
H         73.42907       31.67506       21.94720
H         71.13397       34.54088       24.23848
H         73.55227       30.22826       23.90298
H         71.28325       33.06043       26.18929
H         72.48568       30.90032       26.03427
N         70.93195       31.72741       18.97494
C         71.43761       30.53276       18.30650
C         72.46210       30.76912       17.21650
O         73.03194       29.79594       16.74208
C         70.18585       29.86773       17.72746
C         69.12717       30.28927       18.72824
C         69.48517       31.75861       18.93185
H         71.88090       29.89262       19.10386
H         69.92165       30.35807       16.76139
H         70.28223       28.77412       17.55505
H         68.08116       30.11085       18.40125
H         69.30936       29.74146       19.68152
H         69.17855       32.34082       18.03539
H         68.99262       32.15523       19.84054
N         72.73421       32.01822       16.74301
C         73.75911       32.25675       15.73696
C         75.11122       31.95099       16.34276
O         75.82417       31.10622       15.81879
C         73.74673       33.71137       15.22038
C         72.53359       34.05939       14.34061
C         71.23421       34.12471       15.07661
O         70.17360       33.39554       14.68186
O         71.10407       34.91754       15.99234
H         72.20612       32.81867       17.11314
H         73.58594       31.59966       14.85412
H         74.63562       33.83868       14.56398
H         73.84280       34.43327       16.05760
H         72.45869       33.34318       13.49474
H         72.70375       35.07273       13.91584
N         75.52088       32.59825       17.46850
C         76.79748       32.32995       18.08999
H         77.61979       32.57498       17.38530
H         76.91018       32.95256       19.00293
H         76.86004       31.25942       18.37975
H         74.90191       33.29643       17.90839
Ca        68.22704       34.21838       15.46935
O         68.19106       32.81588       12.80709
H         68.86276       33.45985       12.46951
H         68.55810       31.92766       12.57108
O         67.19500       31.26332       15.39922
H         67.52247       30.32936       15.42450
H         66.86321       31.43608       16.31595
O         69.42221       36.35799       13.68731
H         69.14225       37.03082       13.01812
H         69.11878       36.72710       14.55473

Ca 1.0



