%chk=apoCaM-CA-Ng.loop1.water4.frame345.chk
%nprocshared=20
%mem=10GB
%nosave
#b3lyp/svp scf=(tight,noincore,xqc) Test 
#IOP(5/87=12) Density=Current Pop=(MK,readradii) iop(6/33=2) iop(6/42=6)

apoCaM-CA-Ng.loop1.water4.frame345 

   0  1 
C         75.75501       83.16308       68.79710
C         74.70076       84.17775       69.13521
O         74.74670       85.28023       68.60922
H         76.75441       83.55570       69.07607
H         75.58891       82.20785       69.34000
H         75.73332       82.95235       67.70748
N         73.70177       83.86467       70.00522
C         72.62290       84.78399       70.35476
C         73.08592       85.94731       71.23963
O         72.24057       86.74763       71.59798
C         71.48105       84.02083       71.07468
C         70.82968       82.97526       70.20183
O         71.52849       81.91600       69.75192
O         69.64716       83.07436       69.91333
H         73.68798       82.91237       70.40034
H         72.18317       85.20139       69.42314
H         70.68743       84.74298       71.35204
H         71.85776       83.54934       72.00790
N         74.37585       86.12519       71.64945
C         74.76684       87.17802       72.59085
C         75.70814       88.18479       71.96784
O         76.45426       87.78601       71.08396
C         75.47711       86.51900       73.78749
C         74.49465       85.72689       74.65598
C         75.17903       85.27021       75.94586
C         74.17339       84.62484       76.90320
N         74.82088       84.26104       78.16225
H         75.11156       85.48203       71.32807
H         73.88429       87.73306       72.94144
H         75.94284       87.30103       74.41593
H         76.31219       85.87088       73.44063
H         74.08207       84.86038       74.09463
H         73.65203       86.39433       74.93372
H         75.61402       86.15968       76.45438
H         75.99963       84.55917       75.70668
H         73.73075       83.72025       76.43153
H         73.35398       85.34849       77.11630
H         75.22415       85.11328       78.61666
H         74.10998       83.84321       78.80441
H         75.57953       83.56304       77.98765
N         75.84280       89.48959       72.39024
C         75.07840       90.28338       73.37682
C         75.04975       89.69354       74.78558
O         74.20893       88.84720       75.04464
C         73.64095       90.62642       72.91836
C         73.56809       91.26351       71.56275
O         74.67710       91.49502       70.83809
O         72.47617       91.52260       71.08276
H         76.59746       90.02046       71.92540
H         75.58800       91.26842       73.42684
H         73.17742       91.31734       73.65783
H         73.02057       89.71320       72.87857
N         75.86397       90.10503       75.79773
C         76.85939       91.15609       75.66739
C         77.61303       91.41979       76.96438
O         77.40828       90.71072       77.93973
H         75.73774       89.63650       76.70797
H         76.32937       92.09406       75.39548
H         77.58590       90.88647       74.87092
N         78.47705       92.46692       77.09799
C         78.76361       93.43264       76.04123
C         77.90259       94.66787       76.20968
O         77.20888       94.79057       77.21128
C         80.27044       93.78956       75.99408
C         80.76902       94.53470       77.21314
O         80.78816       93.94994       78.42586
O         81.19188       95.67406       77.09760
H         78.85810       92.63378       78.03915
H         78.50138       92.99632       75.05627
H         80.44570       94.43196       75.10394
H         80.87501       92.86760       75.85965
N         77.88657       95.62958       75.24254
C         77.11730       96.85442       75.37011
C         75.61547       96.65439       75.42119
O         74.93505       97.63262       75.69445
H         78.47248       95.51127       74.40264
H         77.34389       97.53444       74.52152
H         77.43998       97.35833       76.30718
N         75.01658       95.44888       75.17872
C         73.57962       95.23616       75.34068
C         73.34767       94.19055       76.42169
O         74.28779       93.53088       76.84396
C         72.93006       94.85062       73.98566
C         73.07786       95.98657       72.96720
O         71.56101       94.59260       74.15700
H         75.58726       94.64026       74.89165
H         73.09222       96.16719       75.70410
H         73.43893       93.93455       73.60219
H         71.27408       94.02221       73.39563
H         74.14620       96.21130       72.77001
H         72.59582       95.69750       72.01055
H         72.57678       96.90515       73.34336
N         72.10715       94.04539       76.96561
C         71.79293       93.11430       78.04686
C         70.73245       92.10286       77.60452
O         70.37815       91.24501       78.40044
C         71.41620       93.93594       79.33237
C         71.20728       93.08808       80.61630
C         70.17608       94.82852       79.13378
C         72.42157       92.24807       81.01253
H         71.35406       94.65426       76.61652
H         72.69812       92.52452       78.29396
H         72.27466       94.61473       79.53993
H         70.31960       92.43032       80.52169
H         71.00688       93.78256       81.46265
H         69.98840       95.42906       80.05025
H         70.31748       95.55678       78.31164
H         69.27693       94.21273       78.92923
H         72.21099       91.73236       81.97338
H         72.63862       91.46865       80.25531
H         73.31273       92.89705       81.14741
N         70.20557       92.11302       76.34181
C         69.18401       91.18420       75.88058
C         69.70189       90.38113       74.70248
O         70.09930       90.96391       73.70151
C         67.91786       91.95626       75.44998
C         67.30941       92.74187       76.61255
O         66.96212       91.04191       74.97217
H         70.52106       92.80955       75.65603
H         68.88452       90.48508       76.69265
H         68.20311       92.67415       74.64248
H         66.46907       91.48956       74.23593
H         67.02588       92.05322       77.43723
H         68.02941       93.49323       76.99513
H         66.40057       93.27708       76.26572
N         69.66473       89.01973       74.74200
C         70.01777       88.16077       73.61001
C         69.10829       88.42937       72.39761
O         68.24713       89.29495       72.47134
C         69.99529       86.66698       74.04727
C         68.60284       86.15273       74.43494
O         70.87883       86.49411       75.12737
H         69.35046       88.57912       75.61865
H         71.06321       88.38902       73.31171
H         70.35006       86.05387       73.19534
H         71.21043       85.55825       75.09211
H         67.90053       86.25032       73.58147
H         68.67112       85.07742       74.70511
H         68.19070       86.69864       75.30701
N         69.24100       87.70714       71.24574
C         68.44224       87.92331       70.04262
C         69.33102       88.16325       68.80789
O         68.79033       88.36755       67.73074
C         67.49111       86.71132       69.90061
C         66.46502       86.83932       68.76224
C         65.40903       85.72896       68.84121
C         64.39900       85.84893       67.69137
N         63.35833       84.82683       67.79790
H         69.90680       86.92962       71.22073
H         67.80135       88.82390       70.16437
H         66.92176       86.64817       70.85583
H         68.07067       85.76916       69.78385
H         66.97837       86.77734       67.78119
H         65.94614       87.81979       68.84381
H         64.86833       85.81356       69.81003
H         65.90284       84.73390       68.79367
H         64.93087       85.73449       66.72052
H         63.92251       86.85447       67.71393
H         62.69937       84.92427       66.99185
H         63.78434       83.87206       67.77484
H         62.82265       84.95339       68.68752
N         70.69714       88.19510       68.88375
C         71.56699       88.42271       67.72985
C         71.42510       87.30585       66.71188
O         71.64408       86.15148       67.05178
C         73.04220       88.53966       68.19051
C         74.06178       88.68324       67.03887
C         73.79744       89.83653       66.10025
O         73.55749       89.60923       64.92544
O         73.87359       91.11772       66.51229
H         71.15159       88.07886       69.79671
H         71.29667       89.39547       67.26376
H         73.32260       87.63009       68.76596
H         73.12418       89.40350       68.88056
H         74.05257       87.73909       66.45111
H         75.08164       88.78962       67.46670
N         71.11189       87.60195       65.41874
C         71.03827       86.61301       64.36287
H         70.03040       86.63980       63.90061
H         71.79492       86.85606       63.58608
H         71.23660       85.58404       64.72883
H         70.94926       88.58450       65.15223
Ca        74.36004       91.66328       68.63317
O         77.16719       91.89724       66.86451
H         77.67998       92.09321       66.04061
H         76.57575       91.14453       66.61311
O         75.00195       94.37378       66.62951
H         75.94350       94.67699       66.67501
H         74.98283       93.73766       65.87095
O         71.87900       93.10892       67.78385
H         71.25570       93.87289       67.69756
H         71.32296       92.30871       67.60819
O         73.53022       95.11383       69.50979
H         72.65574       95.56817       69.41093
H         74.12331       95.80132       69.90479

Ca 1.0



