%chk=apoCaM-CA-Ng.loop3.water6.frame370.chk
%nprocshared=20
%mem=10GB
%nosave
#b3lyp/svp scf=(tight,noincore,xqc) Test 
#IOP(5/87=12) Density=Current Pop=(MK,readradii) iop(6/33=2) iop(6/42=6)

apoCaM-CA-Ng.loop3.water6.frame370 

   0  1 
C         46.70312      116.28145       27.60862
C         47.41833      117.45097       26.99633
O         48.43462      117.86499       27.53168
H         45.79309      116.01384       27.03016
H         47.37681      115.40034       27.63720
H         46.39340      116.53976       28.64333
N         46.92996      118.04277       25.86970
C         47.50855      119.21568       25.22219
C         47.43550      120.41955       26.15816
O         48.42740      121.10289       26.37305
C         48.92667      118.89530       24.68662
C         49.48687      119.99240       23.82638
O         48.91224      120.32496       22.80201
O         50.64246      120.59425       24.16731
H         46.07223      117.65571       25.44631
H         46.86177      119.44942       24.34656
H         48.87751      117.97391       24.06636
H         49.62291      118.70182       25.52976
N         46.25172      120.70754       26.77598
C         46.03409      121.84107       27.68194
C         46.94081      121.85275       28.91227
O         46.91108      122.82645       29.65286
C         44.56624      121.80611       28.20084
C         44.33770      120.61391       29.16976
C         42.90195      120.50100       29.68035
C         42.81583      119.38495       30.73787
N         41.44960      119.21738       31.22668
H         45.45321      120.08816       26.56860
H         46.21190      122.76774       27.09333
H         43.87143      121.74218       27.33530
H         44.34197      122.74801       28.74772
H         44.98977      120.74472       30.06003
H         44.61302      119.65593       28.67835
H         42.22725      120.27533       28.82678
H         42.59222      121.46166       30.14589
H         43.47973      119.64054       31.59561
H         43.16851      118.42217       30.30460
H         41.10088      120.11274       31.63905
H         40.82634      118.91805       30.44243
H         41.44212      118.47802       31.96660
N         47.65349      120.74996       29.26626
C         48.33273      120.59712       30.54567
C         49.43445      121.62640       30.69615
O         50.12670      121.89284       29.72579
C         48.88246      119.15140       30.64587
C         49.11309      118.68096       32.05872
O         49.99366      119.27699       32.87646
O         48.47827      117.72614       32.47932
H         47.62762      119.93486       28.64608
H         47.56972      120.71852       31.34684
H         49.79174      119.03816       30.01796
H         48.11155      118.45947       30.23844
N         49.66717      122.24065       31.88993
C         50.75227      123.19251       32.09193
C         52.14491      122.58578       31.96819
O         53.10329      123.33380       32.09827
H         49.05158      122.02882       32.68845
H         50.67261      123.61959       33.11540
H         50.64285      124.02569       31.36461
N         52.34494      121.25430       31.73898
C         53.65259      120.62428       31.62460
C         53.82623      119.96766       30.25608
O         54.82639      119.29258       30.06108
C         53.79723      119.56102       32.73658
C         53.57143      120.12751       34.11852
N         54.33267      121.13637       34.60008
O         52.68543      119.66196       34.81648
H         51.54203      120.62557       31.65186
H         54.47134      121.36534       31.74893
H         54.81643      119.11797       32.69807
H         53.06016      118.74646       32.56043
H         55.08841      121.54818       34.03584
H         54.15841      121.51113       35.54493
N         52.91185      120.12905       29.25034
C         53.03124      119.47988       27.95602
C         52.79922      117.98654       28.03258
O         53.08819      117.30985       27.05429
H         52.11481      120.75360       29.37712
H         54.04054      119.69871       27.54676
H         52.27938      119.89352       27.24840
N         52.25592      117.40115       29.13929
C         52.09082      115.96334       29.30346
C         52.86949      115.52833       30.52879
O         53.22281      116.36923       31.34784
C         50.58901      115.63362       29.44871
C         50.28962      114.16719       29.67202
C         50.58335      113.20638       28.68768
C         49.69990      113.75039       30.87823
C         50.29417      111.85427       28.91138
C         49.41471      112.40071       31.10005
C         49.71043      111.44684       30.11660
O         49.44413      110.14077       30.32112
H         51.95331      117.99516       29.92642
H         52.50535      115.42920       28.41961
H         50.04984      115.96594       28.53652
H         50.19549      116.22726       30.30301
H         51.03480      113.50199       27.74920
H         49.46431      114.46964       31.65263
H         50.52628      111.12092       28.14906
H         48.96583      112.09822       32.03778
H         49.04950      109.81920       31.14472
N         53.23867      114.22992       30.68687
C         54.04087      113.75816       31.81319
C         55.30832      114.60011       31.90600
O         55.63206      115.04223       32.99940
C         54.32114      112.22367       31.70528
C         52.97587      111.44096       31.75971
C         55.23869      111.74032       32.84939
C         53.10277      109.93669       31.51558
H         52.98836      113.56877       29.93727
H         53.46980      113.90852       32.75700
H         54.83180      112.03003       30.73558
H         52.28976      111.81408       30.98136
H         52.48484      111.60784       32.74421
H         54.75425      111.89576       33.83635
H         55.49306      110.66809       32.73377
H         56.20114      112.27688       32.85555
H         53.54920      109.74840       30.51670
H         53.70990      109.43896       32.29671
H         52.09069      109.47891       31.54167
N         56.00368      114.96640       30.78529
C         57.15360      115.86840       30.85752
C         58.35025      115.20155       31.51540
O         59.31281      115.89246       31.82209
C         57.54756      116.37869       29.46488
O         56.45349      117.02058       28.86073
H         55.66649      114.65169       29.86332
H         56.85201      116.75474       31.46205
H         57.86977      115.53590       28.81804
H         58.41426      117.07720       29.56167
H         56.70047      117.97261       28.72673
N         58.35484      113.86197       31.77112
C         59.40759      113.14427       32.46429
C         59.61840      113.71437       33.85458
O         60.74580      113.99577       34.23530
C         60.68703      113.09080       31.62039
H         57.55411      113.29132       31.47525
H         59.06230      112.09321       32.59204
H         61.10791      114.10399       31.45867
H         61.44924      112.46124       32.12655
H         60.46076      112.63551       30.63234
N         58.54321      113.90414       34.67164
C         58.64925      114.35330       36.05447
C         58.03647      113.30689       36.96563
O         57.46860      112.35207       36.45708
C         57.96239      115.71173       36.21344
H         57.60135      113.70019       34.30485
H         59.71606      114.47038       36.34315
H         56.88554      115.64307       35.95064
H         58.05712      116.08230       37.25594
H         58.44769      116.45279       35.54222
N         58.13379      113.42968       38.32687
C         57.68982      112.45643       39.33631
C         57.36229      111.08121       38.76191
O         56.24107      110.60531       38.88853
C         56.51335      113.02672       40.16448
C         56.85634      114.33383       40.89427
C         55.70481      114.78217       41.74892
O         55.26118      113.99850       42.75098
O         55.17286      115.86230       41.54818
H         58.59475      114.27684       38.68849
H         58.54115      112.27744       40.02965
H         56.23527      112.26813       40.93044
H         55.63678      113.19575       39.50018
H         57.09159      115.12958       40.15588
H         57.74106      114.17940       41.54845
N         58.32722      110.38720       38.09581
C         58.07250      109.10468       37.47908
H         57.26674      109.20532       36.71998
H         58.99082      108.74323       36.96901
H         57.77078      108.36416       38.24828
H         59.26886      110.79772       37.99869
Ca        50.15882      118.41000       34.95674
O         49.76598      119.38150       37.78964
H         50.03535      118.50656       38.16654
H         50.52456      119.98419       37.99291
O         52.13357      116.99392       36.97410
H         52.23057      116.50737       37.83074
H         53.00642      117.44196       36.84080
O         52.10585      116.35278       33.97081
H         51.45958      116.00056       33.30809
H         52.58164      115.55268       34.30663
O         49.15009      115.51503       35.34026
H         49.80248      114.90272       34.91660
H         48.79683      115.00536       36.11190
O         47.19393      118.87149       35.40182
H         47.07495      117.88902       35.36751
H         47.29409      119.07532       36.36553
O         50.18819      121.43529       35.07137
H         49.20112      121.42056       35.14874
H         50.50670      121.66697       35.97903

Ca 1.0



