%chk=apoCaM-CA-Ng.loop1.water5.frame1009.chk
%nprocshared=20
%mem=10GB
%nosave
#b3lyp/svp scf=(tight,noincore,xqc) Test 
#IOP(5/87=12) Density=Current Pop=(MK,readradii) iop(6/33=2) iop(6/42=6)

apoCaM-CA-Ng.loop1.water5.frame1009 

   0  1 
C         42.75556       13.14308       45.04113
C         41.28044       13.06239       45.31255
O         40.50660       13.53846       44.49486
H         43.34693       12.67657       45.85727
H         42.98866       12.61404       44.09309
H         43.06020       14.20632       44.94848
N         40.81838       12.46066       46.44495
C         39.40006       12.32107       46.77263
C         39.12944       13.00271       48.11528
O         40.08776       13.33887       48.79997
C         39.11568       10.79496       46.84104
C         37.68282       10.33153       46.88852
O         37.43140        9.01465       47.01425
O         36.74951       11.10043       46.74694
H         41.50648       12.06005       47.10281
H         38.78201       12.79409       45.97974
H         39.65572       10.38425       47.72344
H         39.54612       10.31457       45.93525
N         37.86048       13.21175       48.58019
C         37.58493       13.64853       49.94217
C         36.91398       12.49181       50.69063
O         37.59952       11.94302       51.54319
C         36.85654       15.01998       50.00567
C         37.71039       16.22099       49.54984
C         38.85122       16.54748       50.52906
C         39.58602       17.83392       50.12988
N         40.62906       18.15819       51.10385
H         37.05653       12.99813       47.98263
H         38.53888       13.79626       50.48733
H         36.52432       15.21668       51.04803
H         35.96326       15.03462       49.36490
H         37.03853       17.10772       49.52171
H         38.10089       16.05495       48.52205
H         39.58641       15.71864       50.56716
H         38.41841       16.69210       51.54345
H         38.86157       18.67781       50.08218
H         40.04419       17.70620       49.12424
H         41.11221       19.03804       50.81160
H         40.20441       18.30623       52.04868
H         41.33134       17.38470       51.15220
N         35.64395       12.00785       50.51027
C         34.57563       12.55830       49.69025
C         33.89322       11.48396       48.86423
O         33.50416       10.46518       49.41912
C         33.57570       13.19302       50.66978
C         32.45091       13.90698       50.00047
O         32.69090       14.83000       49.23779
O         31.17258       13.61612       50.31312
H         35.36618       11.22782       51.12840
H         34.93894       13.32934       49.00340
H         34.12083       13.95101       51.27415
H         33.16994       12.42649       51.36511
N         33.64995       11.68421       47.53517
C         32.97133       10.71320       46.69237
C         31.61667       11.18664       46.19732
O         31.00565       10.42976       45.45696
H         33.93920       12.57204       47.09688
H         32.79839        9.75927       47.23597
H         33.62518       10.48551       45.82342
N         31.05983       12.38578       46.56559
C         29.71825       12.81585       46.16097
C         29.62169       12.91378       44.63975
O         28.90431       12.12144       44.04340
C         28.64190       11.85556       46.74016
C         28.70173       11.76425       48.23844
O         28.91473       10.69138       48.78053
O         28.49179       12.85808       48.99168
H         31.58372       13.02092       47.18359
H         29.50481       13.81862       46.58907
H         28.75555       10.83635       46.31458
H         27.63068       12.22146       46.45797
N         30.31965       13.82513       43.90186
C         31.12383       14.91553       44.42709
C         30.24386       16.01032       44.99033
O         29.36138       16.47052       44.28016
H         30.25313       13.75799       42.87374
H         31.66847       15.37820       43.57575
H         31.88684       14.54342       45.14269
N         30.45839       16.51217       46.23927
C         29.63352       17.56919       46.84329
C         30.25233       18.09639       48.18015
O         30.91203       17.07756       48.85439
C         28.16233       17.09874       47.03183
C         27.28715       18.18131       47.67634
O         28.10770       15.93102       47.80162
H         31.25959       16.12887       46.76095
H         29.58508       18.43515       46.14596
H         27.73829       16.89038       46.02416
H         27.28206       15.44419       47.54111
H         26.23685       17.82620       47.74179
H         27.63633       18.41446       48.70452
H         27.30825       19.10906       47.06617
N         31.21877       19.18826       47.92029
C         31.86284       19.83002       49.10656
C         30.81920       20.45796       50.04563
O         29.63707       20.19795       49.87959
C         32.90649       18.86364       49.79662
C         33.86285       18.20459       48.75925
C         33.73568       19.50475       50.92132
C         34.75579       19.17905       47.98658
H         30.72391       19.94227       47.38824
H         32.44283       20.68791       48.70295
H         32.36908       18.03948       50.30261
H         33.27515       17.62187       48.01999
H         34.51762       17.47672       49.28672
H         34.27414       20.40880       50.56900
H         33.09316       19.75305       51.78502
H         34.47815       18.77612       51.31260
H         35.39892       18.60455       47.28687
H         34.14822       19.88706       47.38740
H         35.41886       19.74480       48.67181
N         31.18541       21.33320       51.03327
C         30.22682       21.94479       51.95535
C         30.31030       23.46615       51.91599
O         31.16014       24.02143       51.23640
C         30.44174       21.40000       53.39412
C         31.79373       21.78354       54.00646
O         30.32887       20.00001       53.39200
H         32.17454       21.58673       51.14071
H         29.19001       21.67023       51.66445
H         29.66655       21.82461       54.07354
H         29.35889       19.78854       53.36262
H         31.89997       22.88685       54.06509
H         31.86038       21.37643       55.03803
H         32.63705       21.37114       53.41952
N         29.42380       24.20076       52.64703
C         29.43024       25.65951       52.71227
C         30.70958       26.15722       53.36627
O         31.03623       25.69352       54.44876
C         28.20004       26.15350       53.51842
C         28.13091       27.68649       53.58326
O         27.03195       25.67441       52.90165
H         28.70018       23.69257       53.17626
H         29.33036       26.07353       51.68398
H         28.27221       25.74753       54.55571
H         26.31666       25.68153       53.59033
H         27.23200       27.99847       54.15574
H         29.02153       28.10534       54.09604
H         28.06758       28.11468       52.56005
N         31.42990       27.16584       52.78795
C         32.60907       27.80547       53.37038
C         33.81596       26.88654       53.36486
O         33.76087       25.79534       53.91490
C         32.32595       28.37894       54.78015
C         33.51300       29.20748       55.30714
C         33.20872       29.80198       56.68967
C         34.33990       30.69898       57.22573
N         35.58768       29.96481       57.44491
H         31.08271       27.55921       51.90004
H         32.84872       28.68389       52.72944
H         32.11300       27.56752       55.50563
H         31.43334       29.03937       54.71803
H         33.72543       30.03443       54.59455
H         34.40696       28.55404       55.37647
H         33.01060       28.98358       57.41591
H         32.29262       30.42732       56.61186
H         34.00537       31.12971       58.19536
H         34.52051       31.54192       56.52232
H         35.98606       29.63651       56.53794
H         36.28491       30.60596       57.88768
H         35.42399       29.15263       58.08315
N         34.97921       27.31693       52.79810
C         36.19938       26.52542       52.78031
C         36.03181       25.29078       51.89873
O         36.23059       24.20252       52.41954
C         37.42786       27.38208       52.37694
C         37.72373       28.57438       53.31596
C         38.14515       28.17481       54.70758
O         37.29346       27.54092       55.53512
O         39.26012       28.46575       55.11066
H         35.00724       28.26743       52.39846
H         36.40926       26.16726       53.80797
H         37.28036       27.80925       51.37214
H         38.33292       26.73680       52.34062
H         36.84968       29.25567       53.38085
H         38.55751       29.15131       52.85766
N         35.65033       25.31514       50.58534
C         35.31529       26.49994       49.82244
H         34.47196       27.04401       50.29310
H         36.18990       27.15988       49.69579
H         34.99454       26.20396       48.80114
H         35.55893       24.41137       50.09527
Ca        29.84147       15.29449       49.70205
O         28.89764       14.23018       52.95050
H         29.03663       14.73218       53.79261
H         28.28054       13.49640       53.19784
O         28.58521       17.34367       51.87149
H         27.76593       17.80952       51.56792
H         29.31985       17.78311       51.37408
O         26.72841       14.92024       50.71632
H         26.19026       14.50644       51.43714
H         26.14391       14.88472       49.91805
O         30.11750       11.37135       51.85117
H         30.72732       11.04213       51.14369
H         30.51558       11.04099       52.69511
O         31.72994       15.75908       52.57269
H         32.65543       15.95928       52.28315
H         31.83527       15.09212       53.29709

Ca 1.0



