%chk=apoCaM-CA-Ng.loop1.water3.frame1060.chk
%nprocshared=20
%mem=10GB
%nosave
#b3lyp/svp scf=(tight,noincore,xqc) Test 
#IOP(5/87=12) Density=Current Pop=(MK,readradii) iop(6/33=2) iop(6/42=6)

apoCaM-CA-Ng.loop1.water3.frame1060 

   0  1 
C          6.16411       72.28739       45.37716
C          5.44509       71.73746       46.57358
O          5.49292       72.36851       47.62036
H          7.25551       72.33518       45.57607
H          5.98929       71.66414       44.47590
H          5.79071       73.31341       45.17312
N          4.77280       70.55083       46.50347
C          4.01258       70.00123       47.62222
C          4.81599       68.91355       48.31009
O          4.36642       67.77986       48.42428
C          2.64263       69.48843       47.13228
C          1.85822       70.55272       46.42079
O          1.51149       71.68434       47.06198
O          1.52742       70.39229       45.25635
H          4.81016       70.00788       45.62691
H          3.83733       70.78765       48.38923
H          2.05025       69.12547       48.00018
H          2.80318       68.63247       46.43810
N          6.04100       69.21864       48.81434
C          6.87849       68.26629       49.53254
C          6.20756       67.83810       50.82985
O          6.03572       66.64199       51.00783
C          8.31475       68.79755       49.79581
C          8.99632       69.42511       48.55831
C          9.02645       68.52011       47.31265
C          9.43214       69.28818       46.04263
N         10.77490       69.86010       46.12235
H          6.38318       70.17631       48.67009
H          7.00897       67.36701       48.89053
H          8.92955       67.94905       50.17103
H          8.31759       69.57226       50.58834
H         10.03142       69.71458       48.83868
H          8.46585       70.36175       48.29974
H          8.00774       68.14174       47.09476
H          9.69262       67.64829       47.49021
H          8.69440       70.10240       45.85948
H          9.38265       68.58967       45.17834
H         10.82761       70.57562       46.88161
H         11.47837       69.10469       46.28499
H         10.98716       70.33676       45.21614
N          5.73972       68.71203       51.77699
C          5.75942       70.17394       51.69786
C          4.35167       70.69601       51.46449
O          3.43015       69.89528       51.37678
C          6.45285       70.77847       52.93385
C          5.85211       70.35489       54.23882
O          4.69053       70.61254       54.51137
O          6.62047       69.69802       55.12481
H          5.25694       68.29839       52.59189
H          6.33990       70.53004       50.83635
H          6.44479       71.88596       52.87483
H          7.51572       70.45180       52.92444
N          4.11391       72.02389       51.27352
C          2.81558       72.52888       50.84942
C          1.96619       73.01364       51.99554
O          2.40572       72.98864       53.13377
H          4.90755       72.68409       51.29260
H          2.26836       71.75789       50.26598
H          2.97722       73.39021       50.16510
N          0.71003       73.47830       51.74649
C         -0.15181       74.11567       52.74615
C         -0.58971       75.48135       52.21978
O         -0.31668       75.76041       51.05845
C         -1.34150       73.17943       53.05274
C         -0.80060       71.91255       53.64347
O         -0.03690       71.99345       54.74951
O         -0.97134       70.84020       53.08755
H          0.34859       73.39111       50.78233
H          0.42127       74.28651       53.68239
H         -1.91531       72.96564       52.12318
H         -2.03134       73.61954       53.79216
N         -1.23640       76.43458       52.95292
C         -1.62060       76.38827       54.35425
C         -0.44365       76.29814       55.29767
O          0.51956       77.03225       55.13653
H         -1.47246       77.31210       52.46278
H         -2.37583       75.60318       54.54672
H         -2.12384       77.35146       54.58807
N         -0.51812       75.47944       56.38252
C          0.51292       75.38796       57.41386
C          1.77422       74.74161       56.87271
O          1.68161       73.70336       56.23817
C         -0.03904       74.62537       58.64285
C          0.99677       74.48219       59.75952
O         -0.50231       73.35060       58.27739
H         -1.38856       74.94139       56.51119
H          0.75060       76.40936       57.78770
H         -0.87637       75.24111       59.05594
H         -1.48496       73.33641       58.42224
H          0.52002       74.00550       60.64104
H          1.84490       73.84378       59.43035
H          1.39028       75.47650       60.06102
N          2.99488       75.30144       57.13797
C          4.28924       74.78817       56.68864
C          4.55536       73.38857       57.25557
O          3.83072       72.45618       56.93755
C          4.40471       74.84791       55.13462
C          4.08386       76.27884       54.61722
C          5.80366       74.39926       54.66535
C          3.96809       76.38183       53.09404
H          3.01885       76.16306       57.70387
H          5.07033       75.47586       57.08506
H          3.66060       74.15387       54.71955
H          4.84964       76.99749       54.98246
H          3.10053       76.60165       55.01333
H          5.86955       74.37814       53.55879
H          6.58421       75.08729       55.05557
H          6.02925       73.37154       55.01567
H          3.68469       77.42035       52.81886
H          4.92574       76.15017       52.58832
H          3.17623       75.69740       52.72270
N          5.62609       73.16227       58.07150
C          5.99726       71.82074       58.52819
C          5.21791       71.34114       59.75237
O          5.39209       70.18979       60.12445
C          7.52206       71.74175       58.82297
C          7.95707       72.57518       60.03987
O          8.24936       72.16887       57.70003
H          6.26076       73.95200       58.25685
H          5.80901       71.11178       57.69008
H          7.79537       70.68573       59.05786
H          8.21871       71.42993       57.03799
H          7.44202       72.22886       60.96083
H          9.04968       72.45743       60.19940
H          7.74512       73.65423       59.90043
N          4.42437       72.17688       60.48551
C          3.83307       71.76730       61.76153
C          2.79975       70.66694       61.55402
O          1.79697       70.90890       60.90071
C          3.23799       72.99923       62.49452
C          2.61642       72.64536       63.84694
O          4.25664       73.94299       62.72207
H          4.31520       73.15273       60.17732
H          4.65343       71.38554       62.41031
H          2.42889       73.44725       61.87919
H          4.21512       74.61509       61.99270
H          1.76460       71.94837       63.71602
H          3.37331       72.18419       64.51623
H          2.22885       73.56823       64.33016
N          2.99850       69.42334       62.08975
C          2.07819       68.29616       61.95071
C          1.89169       67.90751       60.49700
O          0.78512       67.99077       59.98019
C          0.73264       68.53664       62.68367
C          0.85596       68.75391       64.20626
C          1.63769       67.63100       64.90933
C          1.60308       67.76772       66.43436
N          2.46113       66.75882       67.05776
H          3.86454       69.25143       62.62209
H          2.53322       67.39979       62.42015
H          0.10402       67.63004       62.53464
H          0.18643       69.39686       62.24073
H         -0.17743       68.79900       64.61675
H          1.35416       69.72223       64.41741
H          2.69888       67.67916       64.58692
H          1.21454       66.64054       64.63193
H          0.55623       67.64033       66.79040
H          1.95823       68.77850       66.73272
H          2.39545       66.84289       68.09741
H          2.16244       65.79766       66.77291
H          3.45567       66.91413       66.77107
N          2.95152       67.41744       59.79146
C          2.85672       66.98800       58.40066
C          3.74914       67.84736       57.51709
O          3.18059       68.55636       56.70009
C          3.11727       65.47069       58.23527
C          1.99232       64.61920       58.83911
C          2.31550       63.15632       58.71481
O          1.60070       62.41898       58.05515
O          3.39496       62.64973       59.34220
H          3.85617       67.34048       60.27621
H          1.82216       67.15034       58.02692
H          4.06914       65.16469       58.69857
H          3.17229       65.22897       57.15070
H          1.04463       64.84286       58.29953
H          1.85240       64.85682       59.91438
N          5.11493       67.88498       57.53950
C          6.02452       67.13966       58.38167
H          6.70045       67.84795       58.90187
H          5.53944       66.53597       59.15383
H          6.64039       66.47451       57.73813
H          5.56967       68.50376       56.86011
Ca         1.44896       70.40849       55.32393
O         -0.05115       67.99460       55.94569
H         -0.70976       68.62531       55.55970
H          0.11997       68.34735       56.85438
O          1.39257       68.77744       52.91054
H          0.44212       68.51543       52.98752
H          1.36514       69.75552       52.75742
O          0.95930       70.59616       58.12555
H          0.26791       70.71751       58.82247
H          1.13161       71.50770       57.78189

Ca 1.0



