%chk=apoCaM-CA-Ng.loop3.water3.frame812.chk
%nprocshared=20
%mem=10GB
%nosave
#b3lyp/svp scf=(tight,noincore,xqc) Test 
#IOP(5/87=12) Density=Current Pop=(MK,readradii) iop(6/33=2) iop(6/42=6)

apoCaM-CA-Ng.loop3.water3.frame812 

   0  1 
C         70.43459       91.36344       83.36581
C         69.14194       91.81943       83.97454
O         68.99862       91.76939       85.18642
H         71.13701       91.00493       84.14804
H         70.24616       90.54631       82.64030
H         70.90820       92.21868       82.83604
N         68.15890       92.31819       83.17671
C         66.93247       92.91688       83.70456
C         66.06459       91.86905       84.42601
O         66.22447       90.69094       84.13552
C         66.15874       93.59731       82.53421
C         65.47636       94.88685       82.92074
O         65.81284       95.92437       82.37288
O         64.61063       94.95876       83.93906
H         68.34266       92.34101       82.16153
H         67.26438       93.70712       84.39533
H         65.49711       92.86056       82.04299
H         66.88701       93.91619       81.75547
N         65.08449       92.22247       85.31663
C         64.08001       91.27808       85.83565
C         62.68920       91.58582       85.27561
O         61.85484       90.69247       85.28667
C         63.98214       91.25730       87.37945
C         65.09956       90.49112       88.10410
C         64.78141       90.43369       89.61391
C         65.71586       89.49193       90.38498
N         65.35495       89.45198       91.80477
H         65.00790       93.21310       85.57940
H         64.30597       90.24825       85.48026
H         63.04691       90.71273       87.64237
H         63.88505       92.29408       87.76781
H         66.09285       90.95725       87.92976
H         65.11446       89.45214       87.70625
H         63.74579       90.05110       89.75581
H         64.83721       91.45907       90.04066
H         66.76964       89.82792       90.27889
H         65.62659       88.46533       89.96309
H         65.98252       88.78070       92.30360
H         65.46541       90.40027       92.23176
H         64.36548       89.13070       91.92044
N         62.36733       92.80868       84.76907
C         61.10635       93.13624       84.11697
C         61.33759       93.49924       82.64457
O         60.37877       93.83750       81.96446
C         60.38279       94.24079       84.91848
C         61.15784       95.52260       85.06593
O         61.44877       96.18877       84.08867
O         61.49946       95.96367       86.29112
H         63.04708       93.56274       84.82635
H         60.42620       92.25662       84.11455
H         60.17961       93.83995       85.93616
H         59.40381       94.46460       84.44380
N         62.56886       93.36383       82.06532
C         62.84487       93.52843       80.64737
C         62.85704       94.94600       80.11410
O         63.12145       95.07048       78.92663
H         63.34604       92.99838       82.62601
H         62.12321       92.91477       80.06472
H         63.85607       93.12030       80.43950
N         62.56326       96.05064       80.86632
C         62.45849       97.38384       80.26505
C         63.16970       98.47332       81.05960
O         63.59497       98.25140       82.18371
C         60.96529       97.74280       80.14879
C         60.22474       96.70787       79.33703
N         59.26554       95.94159       79.90662
O         60.50818       96.54696       78.15915
H         62.29522       95.93261       81.84833
H         62.90086       97.38085       79.24440
H         60.82785       98.73482       79.66761
H         60.53747       97.79631       81.17426
H         59.02315       96.05079       80.90217
H         58.77519       95.22188       79.35556
N         63.29860       99.71114       80.49526
C         63.81799      100.90174       81.15310
C         65.21102      100.73930       81.71021
O         66.09865      100.29100       80.99820
H         62.97447       99.83473       79.52360
H         63.11856      101.21209       81.95820
H         63.84287      101.72342       80.40374
N         65.48011      101.15162       82.98479
C         66.79593      101.03426       83.60766
C         67.15261       99.57386       83.85347
O         66.35720       98.69356       83.56553
C         66.83321      101.82298       84.94512
C         66.76267      103.32412       84.75855
C         65.71369      104.07305       85.31875
C         67.78057      103.99711       84.05645
C         65.68524      105.46637       85.17921
C         67.74925      105.38796       83.91782
C         66.70539      106.12811       84.47963
O         66.69772      107.47038       84.34686
H         64.72073      101.59636       83.52392
H         67.56390      101.46135       82.92666
H         67.78513      101.63817       85.48315
H         66.01214      101.45936       85.60047
H         64.92304      103.58281       85.87200
H         68.60892      103.44864       83.62649
H         64.87456      106.03181       85.62137
H         68.54342      105.89205       83.38049
H         66.00209      108.02347       84.73016
N         68.37138       99.25910       84.37834
C         68.87184       97.91250       84.63458
C         67.99539       97.20161       85.71867
O         67.13576       96.28194       85.12128
C         69.02969       97.10260       83.29730
C         69.68698       95.70589       83.47785
C         69.76644       97.91398       82.21675
C         71.16301       95.72579       83.88498
H         69.01957      100.03140       84.59408
H         69.88753       98.05908       85.06310
H         68.01690       96.92059       82.89113
H         69.61168       95.15104       82.51713
H         69.12538       95.11649       84.22664
H         70.78753       98.19214       82.54636
H         69.82910       97.32497       81.27662
H         69.21401       98.84760       81.98108
H         71.51796       94.68052       84.00404
H         71.78216       96.20654       83.10171
H         71.32299       96.25686       84.84220
N         68.82992       96.53144       86.73126
C         68.10773       95.66430       87.68899
C         68.56782       95.92167       89.10455
O         67.98645       95.35111       90.01903
C         68.34112       94.17186       87.37765
O         69.71039       93.87030       87.46891
H         69.67294       96.06376       86.33548
H         67.01967       95.89337       87.65692
H         67.98407       93.95373       86.36311
H         67.76940       93.54292       88.09764
H         69.79437       92.88683       87.37777
N         69.62196       96.74277       89.37142
C         70.09180       96.98625       90.72533
C         69.03599       97.71345       91.54296
O         68.09935       98.23611       90.95302
C         71.36531       97.82208       90.65727
H         70.13004       97.18589       88.59230
H         70.31357       95.99973       91.18899
H         72.15690       97.26035       90.11493
H         71.17423       98.77917       90.12690
H         71.71346       98.06336       91.66396
N         69.04786       97.76590       92.90752
C         69.98391       97.07137       93.79070
C         70.22652       97.90290       95.04538
O         69.24649       98.35585       95.62201
C         69.35351       95.74041       94.20746
H         68.22608       98.20868       93.34950
H         70.92563       96.80211       93.28297
H         70.04395       95.18894       94.88192
H         68.38655       95.89999       94.73024
H         69.17168       95.11114       93.30983
N         71.45101       98.10351       95.61665
C         72.71726       97.54590       95.15380
C         73.19599       98.20731       93.87950
O         73.61502       97.50338       92.97130
C         73.79568       97.61865       96.26546
C         74.29330       99.02793       96.62897
C         75.24469       98.97242       97.78928
O         74.96366       99.64524       98.92149
O         76.27681       98.32461       97.71280
H         71.45529       98.62276       96.50841
H         72.58278       96.45266       94.98840
H         74.67450       97.01628       95.94378
H         73.37187       97.13420       97.17393
H         73.44005       99.68184       96.90200
H         74.82655       99.47550       95.76404
N         73.17276       99.56426       93.74839
C         73.63442      100.24424       92.55758
H         74.70724      100.02067       92.38324
H         73.04292       99.92998       91.67518
H         73.51164      101.34149       92.67980
H         72.80612      100.14231       94.51921
Ca        64.92841       96.84024       85.10617
O         62.46570       99.06123       85.52506
H         62.25970       99.11737       86.49209
H         61.61859       99.30897       85.07623
O         65.41125       99.13416       87.05948
H         64.80243       99.84141       87.39034
H         65.36296       98.42210       87.74584
O         64.33692       95.30788       87.57133
H         64.89389       94.64457       88.04984
H         63.73502       94.76251       87.00633

Ca 1.0



