%chk=apoCaM-CA-Ng.loop2.water6.frame1098.chk
%nprocshared=20
%mem=10GB
%nosave
#b3lyp/svp scf=(tight,noincore,xqc) Test 
#IOP(5/87=12) Density=Current Pop=(MK,readradii) iop(6/33=2) iop(6/42=6)

apoCaM-CA-Ng.loop2.water6.frame1098 

   -2  1 
C         44.53752       60.85261       74.40796
C         45.70985       59.90993       74.41670
O         46.82786       60.40102       74.35888
H         43.55737       60.34621       74.47043
H         44.62828       61.53358       75.28213
H         44.55816       61.46042       73.48056
N         45.59406       58.55414       74.52374
C         44.33587       57.80850       74.61045
C         43.63296       57.75087       73.24246
O         44.12638       58.33580       72.28777
C         44.61175       56.41855       75.24886
C         45.45953       55.56328       74.36802
O         46.78467       55.44547       74.57673
O         44.97957       55.10232       73.34861
H         46.47799       58.02630       74.59118
H         43.67158       58.30899       75.34690
H         43.67293       55.87697       75.49338
H         45.14470       56.59641       76.20868
N         42.45752       57.06893       73.09397
C         41.61652       57.03544       71.89047
C         42.19571       56.36655       70.64111
O         41.44480       56.27030       69.67898
C         41.13539       58.45173       71.53985
H         42.08120       56.58271       73.92101
H         40.71141       56.44148       72.15024
H         40.63747       58.91230       72.41805
H         41.97984       59.09751       71.22183
H         40.39914       58.41721       70.70746
N         43.47288       55.89343       70.54207
C         44.00167       55.31086       69.30465
C         44.50535       53.88826       69.49905
O         44.84395       53.50003       70.60867
C         45.13072       56.22410       68.73449
C         46.35552       56.32894       69.62207
O         47.25743       57.10535       69.35044
O         46.43956       55.54503       70.71065
H         44.10082       55.98506       71.34206
H         43.20387       55.26865       68.53343
H         44.70180       57.24100       68.60152
H         45.45605       55.86104       67.73683
N         44.65813       53.08663       68.41051
C         45.40989       51.84168       68.41882
C         46.58642       51.92178       67.45396
O         47.35644       50.97327       67.40252
H         44.26565       53.40529       67.51256
H         44.74831       50.99747       68.13245
H         45.81802       51.63097       69.43243
N         46.79332       53.02078       66.66246
C         47.91986       53.20346       65.76122
C         48.67050       54.46560       66.16619
O         48.26550       55.13086       67.11171
C         47.40035       53.34502       64.31374
C         46.62368       52.13322       63.86115
N         45.33328       52.24747       63.46590
O         47.16889       51.03985       63.83789
H         46.13682       53.80901       66.68288
H         48.61755       52.33870       65.81515
H         48.25224       53.48020       63.61532
H         46.75758       54.25066       64.24612
H         44.85601       53.16091       63.46938
H         44.80785       51.41982       63.14729
N         49.77929       54.86832       65.49127
C         50.49666       56.07731       65.87915
C         51.73334       56.33224       65.04018
O         51.99023       55.58538       64.10600
H         50.11124       54.28839       64.70714
H         50.81725       55.95674       66.93605
H         49.81740       56.95396       65.80203
N         52.61176       57.33710       65.32345
C         52.49110       58.29373       66.42201
C         52.84157       59.68332       65.92067
O         53.90986       59.83435       65.34763
C         53.47523       57.89575       67.54558
C         53.40927       58.87416       68.72893
O         53.14966       56.60734       67.99835
H         53.47462       57.37519       64.75723
H         51.47132       58.28767       66.86284
H         54.50973       57.89433       67.12732
H         53.94754       56.25760       68.47373
H         53.69843       59.89884       68.41493
H         52.38171       58.90451       69.15052
H         54.11460       58.55416       69.52333
N         52.03317       60.75786       66.15752
C         52.41511       62.11647       65.76554
C         53.69109       62.51820       66.52891
O         53.59579       62.66380       67.73985
C         51.27791       63.15029       66.06838
C         49.98930       62.81268       65.26939
C         51.74481       64.59066       65.74165
C         48.78163       63.66073       65.67889
H         51.14748       60.60199       66.66043
H         52.54063       62.13506       64.66974
H         51.04816       63.09628       67.15617
H         49.69657       61.75878       65.44646
H         50.17632       62.93286       64.17936
H         50.97712       65.34067       66.01369
H         52.64711       64.86675       66.32530
H         51.98233       64.69118       64.66080
H         47.89079       63.33533       65.10200
H         48.56989       63.52249       66.76082
H         48.93724       64.73742       65.47067
N         54.90615       62.76601       65.94381
C         55.24449       62.50211       64.54857
C         55.32613       63.76268       63.71786
O         55.34106       64.86438       64.24956
C         56.52522       61.63650       64.44685
C         57.79464       62.28124       64.95434
O         58.83601       61.64522       64.92708
O         57.81100       63.54254       65.42778
H         55.65197       63.13277       66.55393
H         54.45573       61.90142       64.07732
H         56.69245       61.35333       63.38542
H         56.36254       60.70150       65.02474
N         55.28630       63.64082       62.36247
C         55.28820       64.76493       61.43642
C         54.97542       64.24019       60.03755
O         55.68156       63.33348       59.61280
C         56.68022       65.44114       61.40905
C         56.63500       66.69868       60.57561
C         57.21170       66.74227       59.29453
C         55.98784       67.84085       61.07753
C         57.12618       67.90800       58.52503
C         55.91656       69.00658       60.31099
C         56.48073       69.03900       59.03353
H         55.18960       62.68673       61.97973
H         54.51965       65.49612       61.76203
H         57.41474       64.71519       60.99282
H         57.04022       65.71073       62.42451
H         57.70631       65.87147       58.88273
H         55.54151       67.82639       62.06423
H         57.55669       67.93452       57.53232
H         55.41934       69.88272       60.70656
H         56.41637       69.94042       58.43794
N         53.98787       64.74451       59.23024
C         53.18646       65.93977       59.48312
C         52.04806       65.72897       60.46323
O         51.96654       64.67209       61.07292
C         52.63042       66.29653       58.08961
C         53.64056       65.65504       57.15099
C         53.83659       64.32891       57.85287
H         53.85905       66.76538       59.79148
H         51.66772       65.76078       57.92061
H         52.45813       67.38287       57.92959
H         53.29693       65.57080       56.09899
H         54.60055       66.21937       57.18822
H         52.90002       63.72860       57.76627
H         54.67810       63.72969       57.44621
N         51.09664       66.69913       60.61661
C         49.91088       66.55369       61.46105
C         49.13759       67.88168       61.48153
O         48.00825       67.92624       61.01223
C         49.01721       65.38542       60.94296
C         47.90026       65.02041       61.93831
C         47.04108       63.90622       61.41246
O         45.71829       64.09751       61.24591
O         47.53106       62.81972       61.14786
H         51.22030       67.58012       60.09271
H         50.23392       66.31049       62.49691
H         49.61821       64.46633       60.80304
H         48.59195       65.65149       59.94897
H         47.25225       65.89482       62.14777
H         48.35996       64.69519       62.89537
N         49.66256       69.03643       61.98397
C         50.97252       69.17087       62.58655
H         51.56428       69.91078       62.00832
H         50.85515       69.53950       63.62654
H         51.53847       68.22192       62.62400
H         49.08507       69.89119       61.94259
Ca        47.70903       55.30155       72.54270
O         50.56347       55.21928       72.54725
H         51.39304       55.08853       73.07025
H         50.86789       55.33930       71.61306
O         49.25367       53.10392       74.65099
H         49.99178       52.67843       74.14633
H         49.68737       53.84280       75.14728
O         48.65660       51.82889       71.80338
H         49.48249       51.72230       71.26802
H         48.07369       51.08410       71.51121
O         48.63105       58.06669       72.64006
H         49.03840       58.96050       72.52186
H         47.74685       58.13458       72.19887
O         48.77228       53.96197       69.72707
H         49.62734       53.57752       69.41067
H         48.96113       54.92839       69.82643
O         46.00216       52.12864       73.36874
H         45.15627       52.34681       73.83441
H         45.71592       51.68552       72.53087

Ca 1.0



