%chk=apoCaM-CA-Ng.loop2.water4.frame608.chk
%nprocshared=20
%mem=10GB
%nosave
#b3lyp/svp scf=(tight,noincore,xqc) Test 
#IOP(5/87=12) Density=Current Pop=(MK,readradii) iop(6/33=2) iop(6/42=6)

apoCaM-CA-Ng.loop2.water4.frame608 

   -2  1 
C         64.03058       23.91056       66.03271
C         63.38158       24.99456       65.22978
O         62.82526       24.69931       64.18146
H         65.11164       24.12809       66.15251
H         63.54893       23.85232       67.03069
H         63.91654       22.92814       65.52462
N         63.42140       26.28964       65.65886
C         62.78196       27.37159       64.91981
C         61.28255       27.14925       64.94397
O         60.67053       27.36085       65.98334
C         63.15484       28.73760       65.53912
C         62.56512       29.89541       64.78529
O         62.85559       30.08002       63.61434
O         61.72779       30.74787       65.40685
H         63.93340       26.50274       66.52923
H         63.16860       27.34424       63.87617
H         64.26075       28.84844       65.54074
H         62.80931       28.77255       66.59669
N         60.64035       26.62024       63.86099
C         59.22001       26.27193       63.88457
C         58.91714       25.29473       65.02433
O         59.85504       24.74256       65.58485
C         58.82439       25.64704       62.53554
H         61.19151       26.42311       63.01083
H         58.65916       27.21574       64.05506
H         59.03931       26.35656       61.70922
H         59.41047       24.71735       62.36326
H         57.75216       25.38310       62.48649
N         57.65966       25.03800       65.49032
C         56.41815       25.61846       64.99412
C         55.79915       26.58431       66.03608
O         55.68334       26.19406       67.38262
C         55.45691       24.55021       64.39746
C         55.20203       23.25092       65.12671
O         54.40380       22.46037       64.65020
O         55.89581       22.88146       66.21467
H         57.59965       24.41327       66.30492
H         56.61872       26.30156       64.14907
H         55.87605       24.23398       63.41861
H         54.48497       25.04561       64.18721
N         54.65478       27.37833       65.55044
C         54.29342       28.46390       66.48204
C         55.40782       29.46311       66.74749
O         56.43804       29.39827       66.09274
H         54.89739       27.80537       64.62580
H         54.00546       28.00819       67.43603
H         53.40653       29.00797       66.09211
N         55.31108       30.41831       67.72088
C         54.17348       30.60419       68.62152
C         54.56060       30.30685       70.07896
O         53.71287       30.46410       70.94584
C         53.68212       32.07235       68.52920
C         53.24551       32.48974       67.14287
N         51.98770       32.94013       66.91922
O         54.04342       32.45391       66.21824
H         56.11949       31.04892       67.85059
H         53.32813       29.93719       68.35805
H         54.50218       32.75276       68.84867
H         52.83432       32.21563       69.23449
H         51.29953       32.99965       67.68369
H         51.70201       33.24504       65.97654
N         55.82903       29.93508       70.43414
C         56.29262       29.89360       71.81516
C         55.80222       28.76197       72.69976
O         56.17861       28.79331       73.86448
H         56.55053       29.81580       69.71141
H         56.03382       30.86388       72.29351
H         57.40172       29.82066       71.80776
N         55.00787       27.73433       72.27538
C         54.55768       26.66597       73.18011
C         55.11801       25.29922       72.76982
O         55.89221       25.22533       71.82177
C         53.01655       26.71269       73.34329
C         52.56803       28.05798       73.92873
O         52.37996       26.50679       72.11462
H         54.70505       27.70623       71.29047
H         54.96370       26.82339       74.20407
H         52.71335       25.92179       74.06546
H         51.45938       26.19329       72.31772
H         53.06085       28.23596       74.90872
H         52.82034       28.89287       73.24168
H         51.46907       28.05383       74.08686
N         54.82617       24.18260       73.50323
C         55.48984       22.88370       73.36450
C         54.52277       21.82231       72.85862
O         53.47935       21.61483       73.46683
C         56.07879       22.47359       74.75688
C         56.64547       21.02564       74.76344
C         57.15775       23.48916       75.18203
C         57.07334       20.53528       76.14909
H         54.14144       24.26365       74.27065
H         56.33445       22.94536       72.64143
H         55.24927       22.50062       75.49919
H         57.49732       20.93925       74.05950
H         55.85058       20.32202       74.44245
H         56.74325       24.51773       75.21155
H         57.54074       23.27497       76.19884
H         58.00855       23.46935       74.46684
H         57.91895       21.12302       76.55479
H         56.21372       20.58272       76.85161
H         57.40635       19.47934       76.08255
N         54.87747       21.04091       71.79371
C         54.10277       19.90864       71.29350
C         54.81163       18.58541       71.58311
O         54.23747       17.55291       71.27101
C         53.94126       19.99633       69.75677
C         53.55401       21.35438       69.26494
O         52.46124       21.83255       69.51293
O         54.48843       22.05269       68.58750
H         55.78500       21.21928       71.34823
H         53.10460       19.89234       71.78589
H         53.23999       19.22021       69.37931
H         54.93785       19.78898       69.31191
N         56.05801       18.52964       72.15772
C         56.75731       17.27892       72.42438
C         58.16123       17.34720       71.81514
O         59.13146       17.28169       72.55360
C         56.73606       17.05046       73.95589
C         56.90015       15.59697       74.34598
C         58.15679       14.96985       74.41646
C         55.74773       14.84651       74.65159
C         58.25086       13.62121       74.78266
C         55.84616       13.50135       75.00659
C         57.09694       12.88787       75.07332
H         56.53510       19.39086       72.44747
H         56.20279       16.42818       71.97408
H         55.71223       17.34078       74.28148
H         57.41775       17.72530       74.51513
H         59.06546       15.51263       74.20724
H         54.76504       15.30012       74.60261
H         59.21939       13.14232       74.84261
H         54.94964       12.93694       75.22882
H         57.16987       11.84486       75.35212
N         58.36204       17.52232       70.46672
C         59.67796       17.62725       69.83663
C         60.54765       18.77955       70.31773
O         61.69289       18.85837       69.89198
C         59.34841       17.88940       68.35981
C         58.03764       17.16274       68.18926
C         57.30825       17.53229       69.47753
H         60.19293       16.65314       69.99205
H         59.11058       18.97221       68.22309
H         60.15638       17.61964       67.64643
H         57.48078       17.40663       67.25961
H         58.25899       16.07198       68.20712
H         56.88499       18.55615       69.42926
H         56.51540       16.77788       69.66160
N         60.06029       19.74788       71.14216
C         60.84587       20.87636       71.59813
C         61.66238       20.40625       72.77923
O         62.88291       20.46504       72.72538
C         59.94519       22.07807       71.98962
C         59.31556       22.87465       70.81733
C         58.24716       22.22980       69.96308
O         57.73307       22.88165       69.06951
O         57.82474       20.97413       70.15555
H         59.10291       19.67349       71.49979
H         61.53014       21.23347       70.79404
H         60.60792       22.81195       72.50101
H         59.16683       21.77791       72.71849
H         60.13348       23.21282       70.14588
H         58.84708       23.77805       71.26611
N         61.04325       19.89152       73.87754
C         61.78039       19.38029       75.01014
H         62.40026       20.18543       75.45681
H         61.07290       19.00131       75.77809
H         62.43303       18.54142       74.68620
H         60.01361       19.84175       73.90537
Ca        54.70660       24.25598       68.11596
O         53.28426       26.60187       69.14110
H         53.48903       26.09102       69.95877
H         52.35038       26.91131       69.24219
O         52.68232       23.98996       71.05292
H         51.83143       24.24556       70.61531
H         52.42532       23.28307       71.69357
O         58.02093       25.80492       69.02194
H         58.17840       26.25564       68.15519
H         58.84925       25.28742       69.17711
O         51.98866       24.29234       66.96998
H         52.17558       25.06581       66.38070
H         52.51755       23.55124       66.58057

Ca 1.0



