%chk=apoCaM-CA-Ng.loop2.water4.frame391.chk
%nprocshared=20
%mem=10GB
%nosave
#b3lyp/svp scf=(tight,noincore,xqc) Test 
#IOP(5/87=12) Density=Current Pop=(MK,readradii) iop(6/33=2) iop(6/42=6)

apoCaM-CA-Ng.loop2.water4.frame391 

   -2  1 
C         12.46425       58.74949       32.34969
C         11.43349       57.71116       32.02016
O         10.30042       58.06405       31.72663
H         13.30646       58.68038       31.62959
H         12.02831       59.77010       32.29358
H         12.84764       58.58157       33.37770
N         11.76685       56.39092       32.03281
C         10.81024       55.33336       31.71314
C          9.68685       55.28511       32.74890
O          9.82579       55.84516       33.82741
C         11.57821       53.99140       31.57604
C         10.75621       52.79746       31.16671
O          9.86229       52.25672       32.01603
O         10.95485       52.26077       30.08833
H         12.74582       56.14108       32.24650
H         10.36691       55.57752       30.72147
H         12.10041       53.74634       32.52580
H         12.35679       54.15050       30.79556
N          8.52026       54.64551       32.45693
C          7.38820       54.54454       33.37332
C          6.77474       55.90108       33.65053
O          6.46708       56.61558       32.70581
C          6.30572       53.64525       32.76767
H          8.43282       54.20658       31.52783
H          7.71651       54.05857       34.31917
H          5.45422       53.54738       33.47569
H          5.93071       54.06681       31.81023
H          6.71965       52.63253       32.57733
N          6.51283       56.29610       34.93019
C          5.87017       57.56943       35.24738
C          4.51153       57.66410       34.57904
O          3.62038       56.89143       34.90325
C          5.74666       57.75853       36.77767
C          7.12184       57.83409       37.37544
O          7.51028       57.01219       38.18866
O          7.93749       58.80336       36.93027
H          6.76754       55.65957       35.70124
H          6.50862       58.38795       34.85047
H          5.16286       56.92319       37.22436
H          5.22080       58.71340       36.99885
N          4.31494       58.58420       33.59102
C          3.07947       58.73311       32.84312
C          2.54140       60.14840       32.88193
O          1.56869       60.40400       32.18562
H          5.10228       59.19004       33.31230
H          2.29146       58.03405       33.19697
H          3.30151       58.48907       31.78217
N          3.10092       61.12679       33.65704
C          2.59814       62.49852       33.65753
C          2.97065       63.23601       32.36690
O          2.48584       64.34253       32.17237
C          3.12944       63.29424       34.87392
C          2.73964       62.66923       36.19983
N          1.94646       63.33220       37.07359
O          3.15369       61.55868       36.49713
H          3.88787       60.89246       34.27662
H          1.48867       62.46145       33.75406
H          2.71022       64.32338       34.82578
H          4.23679       63.37622       34.82356
H          1.58166       64.27043       36.85651
H          1.69242       62.90064       37.97522
N          3.83404       62.70058       31.44896
C          4.21270       63.35242       30.20190
C          4.98776       64.64113       30.39229
O          5.18944       65.08096       31.51595
H          4.24554       61.77218       31.61436
H          3.30051       63.55339       29.59859
H          4.86121       62.65916       29.62440
N          5.43989       65.31515       29.29271
C          6.08664       66.62556       29.37649
C          7.41862       66.61053       30.12245
O          7.86639       67.68802       30.49224
C          6.25030       67.28836       27.97908
C          7.29305       66.59984       27.08118
O          5.00378       67.38493       27.33103
H          5.24100       64.90759       28.36760
H          5.38857       67.27263       29.95409
H          6.61612       68.32822       28.12677
H          4.82981       66.53712       26.84461
H          7.34847       67.11445       26.09931
H          8.29050       66.68151       27.54557
H          7.04907       65.52972       26.91465
N          8.10907       65.45774       30.37978
C          9.34225       65.41791       31.17239
C          9.06446       64.62321       32.43894
O          8.05014       63.93654       32.49517
C         10.52112       64.81086       30.33155
C         10.75297       65.55266       28.99062
C         11.85166       64.72122       31.10355
C         11.10038       67.04030       29.11479
H          7.73734       64.56107       30.03013
H          9.61479       66.44426       31.49829
H         10.24486       63.76743       30.05859
H          9.84845       65.44302       28.36840
H         11.57452       65.04938       28.43452
H         11.77001       64.02612       31.96091
H         12.64696       64.30228       30.45017
H         12.17748       65.71782       31.46688
H         10.28082       67.60469       29.59866
H         12.03579       67.18943       29.69071
H         11.24938       67.46702       28.10053
N          9.89262       64.70304       33.52162
C          9.65835       63.95162       34.74655
C          9.37455       64.87608       35.93236
O          9.29211       64.39002       37.04961
C         10.84700       62.98818       34.99870
C         10.48331       61.86284       35.94376
O          9.35467       61.78174       36.40565
O         11.34924       60.86924       36.22047
H         10.71375       65.32718       33.48851
H          8.75871       63.31158       34.61823
H         11.73990       63.55091       35.34710
H         11.10208       62.48946       34.03800
N          9.11432       66.20731       35.75776
C          8.70876       67.07370       36.86208
C          9.89772       67.40249       37.75088
O         10.83704       68.00548       37.25165
C          8.07680       68.37723       36.32612
C          6.85053       68.08788       35.48632
C          5.73176       67.44678       36.05205
C          6.81468       68.45058       34.12845
C          4.60681       67.16645       35.27171
C          5.68515       68.17016       33.35248
C          4.58354       67.52685       33.92276
H          9.10295       66.59750       34.80499
H          7.91396       66.55850       37.43390
H          8.83492       68.93124       35.72898
H          7.77509       69.02500       37.17825
H          5.72737       67.16085       37.09611
H          7.66057       68.94565       33.66824
H          3.75306       66.66938       35.71430
H          5.66423       68.45056       32.30780
H          3.71131       67.30876       33.32033
N          9.94275       67.06479       39.07810
C         11.05788       67.39042       39.95375
C         12.29764       66.58625       39.59032
O         13.37920       67.15767       39.57699
C         10.49545       67.11492       41.35594
C          9.51954       65.98579       41.13014
C          8.88176       66.37919       39.79755
H         11.31702       68.47355       39.93344
H         11.25071       66.96598       42.15683
H          9.86877       67.99273       41.63889
H         10.11381       65.06043       40.99914
H          8.79426       65.79991       41.95042
H          8.53101       65.45119       39.30005
H          8.03882       67.09205       39.93134
N         12.21629       65.27164       39.23707
C         13.37645       64.45599       38.87840
C         14.09316       64.94379       37.62196
O         15.16056       64.41686       37.33891
C         12.93159       62.99391       38.66401
C         12.44791       62.34991       39.97374
C         11.82157       61.01626       39.71564
O         10.78277       60.95222       39.08106
O         12.37145       59.89269       40.21233
H         11.28813       64.83001       39.21499
H         14.10608       64.49332       39.71835
H         13.77039       62.37444       38.27528
H         12.12323       62.99618       37.90139
H         11.68614       62.97455       40.48371
H         13.31965       62.23838       40.65379
N         13.58530       65.92244       36.81803
C         14.26531       66.42157       35.63950
H         15.25034       65.93599       35.47674
H         13.63186       66.24407       34.74573
H         14.43299       67.51367       35.75097
H         12.67141       66.33817       37.02677
Ca        10.15608       59.15262       37.07875
O         10.75852       56.14577       37.37359
H          9.93525       55.62906       37.56091
H         10.81498       56.17320       36.38563
O          9.88672       57.94251       39.96793
H          9.27681       57.20254       40.21324
H          9.51644       58.73360       40.43404
O          9.12295       58.97025       34.38841
H          9.49094       59.60984       33.73008
H          8.76325       58.22351       33.84909
O         13.05682       58.34318       36.32417
H         13.64733       58.92827       36.86219
H         13.34421       57.42312       36.54961

Ca 1.0



