%chk=apoCaM-CA-Ng.loop2.water4.frame1232.chk
%nprocshared=20
%mem=10GB
%nosave
#b3lyp/svp scf=(tight,noincore,xqc) Test 
#IOP(5/87=12) Density=Current Pop=(MK,readradii) iop(6/33=2) iop(6/42=6)

apoCaM-CA-Ng.loop2.water4.frame1232 

   -2  1 
C         62.78882       20.87924       37.55060
C         62.08415       20.14985       36.43883
O         61.06894       20.64745       35.97427
H         63.81922       21.14298       37.22997
H         62.25460       21.82139       37.80025
H         62.82667       20.24855       38.46230
N         62.54639       18.97817       35.91276
C         63.74479       18.27392       36.36559
C         63.42269       16.82764       36.73596
O         62.27407       16.41885       36.63413
C         64.85795       18.38670       35.30283
C         64.53948       17.73170       33.99215
O         65.31585       16.72884       33.54677
O         63.61509       18.12987       33.30220
H         62.01816       18.57230       35.12509
H         64.15593       18.75203       37.27754
H         65.78989       17.93606       35.70350
H         65.07403       19.46166       35.11812
N         64.40898       16.00414       37.20502
C         64.22042       14.63825       37.69731
C         63.76478       13.61048       36.66082
O         63.63141       12.45618       37.04454
C         63.27922       14.64102       38.91112
H         65.36317       16.38561       37.28264
H         65.20917       14.28074       38.06343
H         62.25031       14.94491       38.63118
H         63.22862       13.62754       39.36313
H         63.66389       15.34128       39.68280
N         63.52450       13.91616       35.35191
C         63.08334       12.92374       34.36627
C         64.09839       12.79129       33.24012
O         65.13119       13.44598       33.29065
C         61.65300       13.26256       33.87821
C         61.47449       14.57171       33.15492
O         60.24481       14.92220       32.73338
O         62.41335       15.31813       32.93958
H         63.65865       14.88204       35.02912
H         63.00828       11.91600       34.82950
H         60.98663       13.27033       34.76770
H         61.29081       12.45554       33.20790
N         63.87083       11.95288       32.18528
C         64.82329       11.76821       31.10277
C         64.34176       12.46923       29.85926
O         64.15108       13.67471       29.90932
H         62.98190       11.43501       32.12772
H         64.99012       10.67988       30.94225
H         65.81056       12.20960       31.35496
N         64.16871       11.79910       28.68683
C         63.79437       12.48034       27.44466
C         62.41175       13.11079       27.54886
O         61.65787       12.75834       28.44636
C         63.89173       11.46343       26.27608
C         63.53383       11.98699       24.90527
N         64.47819       12.11576       23.94720
O         62.37233       12.25848       24.64016
H         64.36257       10.78507       28.67068
H         64.53615       13.29210       27.27005
H         63.24345       10.58329       26.47968
H         64.94372       11.10327       26.25848
H         65.46430       11.88668       24.13459
H         64.21845       12.45197       23.01113
N         62.01320       14.05236       26.64037
C         60.66641       14.59389       26.59739
C         60.65977       16.10220       26.72335
O         61.20427       16.59503       27.69919
H         62.67687       14.36741       25.91619
H         60.04641       14.18655       27.42249
H         60.20767       14.25504       25.65244
N         60.01669       16.92994       25.84381
C         59.25731       16.48220       24.67968
C         60.20230       16.19735       23.52469
O         60.19422       15.08582       23.01511
C         58.18513       17.52955       24.28193
C         57.30155       17.01835       23.13592
O         57.34612       17.78041       25.38263
H         60.00637       17.93794       26.06826
H         58.66410       15.58149       24.95158
H         58.66864       18.47603       23.94235
H         57.69955       18.57950       25.85280
H         56.78690       16.07898       23.43477
H         56.52907       17.77600       22.88658
H         57.89871       16.81619       22.22441
N         61.04422       17.17186       23.06367
C         61.96322       16.99278       21.93459
C         63.40675       17.01987       22.43264
O         63.62669       17.49679       23.53811
C         61.68502       18.05754       20.81977
C         61.93089       19.51180       21.31617
C         60.25458       17.87559       20.28162
C         61.72512       20.58207       20.24003
H         61.04500       18.07618       23.55678
H         61.80115       15.98125       21.50671
H         62.37873       17.87772       19.97308
H         62.98088       19.59375       21.66853
H         61.26014       19.76334       22.16274
H         60.10633       16.83142       19.93355
H         59.50739       18.10473       21.06878
H         60.06343       18.53463       19.41112
H         62.36842       20.38546       19.35812
H         60.66529       20.62909       19.91707
H         61.98705       21.57746       20.65794
N         64.45493       16.44811       21.76141
C         64.37461       15.72025       20.49927
C         65.60157       16.01720       19.64769
O         66.70842       15.76836       20.10333
C         64.31204       14.21064       20.80708
C         64.16447       13.32196       19.59517
O         64.09306       13.78439       18.46709
O         64.10080       11.98800       19.76467
H         65.36222       16.42460       22.25430
H         63.44951       15.97059       19.94853
H         63.43250       14.02576       21.46004
H         65.22995       13.90951       21.35716
N         65.47099       16.51176       18.38256
C         66.59906       16.69202       17.46434
C         66.10484       17.33932       16.17600
O         65.18584       16.79627       15.58204
C         67.27316       15.32400       17.14618
C         68.42618       15.43706       16.16718
C         68.18363       15.50417       14.78207
C         69.75586       15.46354       16.62598
C         69.24581       15.60420       13.87889
C         70.81575       15.57241       15.71806
C         70.56069       15.64267       14.34623
H         64.52143       16.74145       18.05359
H         67.36057       17.33252       17.94897
H         66.53940       14.58439       16.75742
H         67.66794       14.89241       18.08757
H         67.17338       15.46926       14.39715
H         69.97344       15.41231       17.68523
H         69.04864       15.65174       12.81545
H         71.83641       15.60229       16.07729
H         71.38148       15.72406       13.64484
N         66.69400       18.45736       15.63430
C         67.90855       19.09333       16.12812
C         67.76427       19.91591       17.39503
O         68.77452       20.42054       17.86035
C         68.31445       20.03950       14.98544
C         67.73815       19.34110       13.76900
C         66.37349       18.93395       14.30489
H         68.67891       18.29882       16.24320
H         67.75041       20.99857       15.07983
H         69.39813       20.27944       14.94432
H         67.70081       19.96700       12.85234
H         68.33594       18.42442       13.56716
H         65.72687       19.83535       14.40247
H         65.87633       18.18541       13.65207
N         66.54188       20.17884       17.94706
C         66.36111       21.12659       19.04600
C         65.56765       22.32945       18.54675
O         64.89453       22.20778       17.53300
C         65.61316       20.45326       20.21378
C         66.37544       19.29689       20.87468
C         67.55607       19.74948       21.68881
O         68.50939       20.29780       21.16145
O         67.57293       19.52626       23.01729
H         65.69727       19.76596       17.52700
H         67.34668       21.50045       19.37108
H         64.66404       20.04526       19.80558
H         65.34979       21.19347       21.00052
H         66.69762       18.55774       20.11403
H         65.66948       18.79656       21.56774
N         65.60514       23.55480       19.15184
C         66.39339       23.90691       20.31756
H         67.12225       24.69658       20.03365
H         65.72536       24.30832       21.10587
H         66.95688       23.06316       20.75345
H         65.05357       24.31793       18.72929
Ca        64.90893       15.87497       31.50952
O         62.40875       17.17020       30.46211
H         62.57059       16.34001       29.94695
H         61.42619       17.20387       30.57736
O         66.58336       18.56939       31.54660
H         66.63625       18.71409       30.56886
H         67.45485       18.16569       31.78740
O         65.35385       16.45929       28.62391
H         66.31364       16.50940       28.38630
H         64.98101       17.33323       28.34570
O         67.63866       15.10858       31.00560
H         67.95744       14.17378       30.94147
H         68.41183       15.61641       31.35787

Ca 1.0



