%chk=apoCaM-CA-Ng.loop2.water4.frame1361.chk
%nprocshared=20
%mem=10GB
%nosave
#b3lyp/svp scf=(tight,noincore,xqc) Test 
#IOP(5/87=12) Density=Current Pop=(MK,readradii) iop(6/33=2) iop(6/42=6)

apoCaM-CA-Ng.loop2.water4.frame1361 

   -2  1 
C         90.62691       60.04490       86.80130
C         90.10246       60.89380       85.66738
O         90.94010       61.42386       84.95193
H         91.27445       60.67541       87.44670
H         89.87500       59.58416       87.45881
H         91.24559       59.22443       86.38095
N         88.78058       61.11552       85.38887
C         87.62387       60.57158       86.10174
C         86.77620       61.66501       86.74334
O         85.78068       61.32652       87.36908
C         86.76281       59.70819       85.14963
C         86.09844       60.48701       84.04260
O         84.75459       60.53598       83.96995
O         86.76387       61.05817       83.19614
H         88.58671       61.73627       84.58919
H         87.93428       59.90327       86.91848
H         85.96523       59.21816       85.75051
H         87.38852       58.90264       84.70822
N         87.10233       62.98720       86.64446
C         86.31707       64.05867       87.24127
C         85.81606       65.04327       86.19255
O         85.24638       66.05217       86.58626
C         87.18850       64.77964       88.27454
H         87.95417       63.27050       86.13951
H         85.42791       63.66364       87.77972
H         86.60967       65.58467       88.77659
H         87.51974       64.06011       89.05354
H         88.08365       65.22655       87.79186
N         85.95422       64.81858       84.84908
C         85.52041       65.77970       83.83556
C         84.30407       65.25591       83.07465
O         83.89994       64.11840       83.27692
C         86.71495       66.11249       82.90357
C         87.10841       64.89843       82.10813
O         88.18729       64.35217       82.27494
O         86.19978       64.37425       81.26803
H         86.36576       63.93316       84.51964
H         85.19955       66.72358       84.32565
H         87.56856       66.46163       83.52708
H         86.45065       66.92916       82.19855
N         83.64412       66.07191       82.20577
C         82.42974       65.68963       81.49710
C         82.65971       64.73305       80.34585
O         83.78097       64.31624       80.10050
H         83.97072       67.04470       82.10260
H         81.99424       66.60731       81.04697
H         81.68728       65.27672       82.21369
N         81.60506       64.38448       79.55138
C         81.73122       63.55236       78.35077
C         82.62438       64.21709       77.31063
O         83.06758       65.33970       77.51803
C         80.33526       63.30648       77.72608
C         79.43881       62.49737       78.62607
N         79.75496       61.21910       78.94004
O         78.40601       62.98989       79.05452
H         80.67404       64.75016       79.80590
H         82.19122       62.57977       78.62919
H         80.41523       62.74868       76.77006
H         79.86641       64.29155       77.50215
H         80.61051       60.78111       78.56816
H         79.13451       60.65827       79.54196
N         82.92760       63.57196       76.14466
C         83.77323       64.17030       75.12384
C         85.20362       64.33561       75.60344
O         85.51389       63.88433       76.69670
H         82.53537       62.63658       75.96133
H         83.33568       65.15497       74.85075
H         83.78712       63.52399       74.21978
N         86.15463       64.99421       74.87856
C         85.92114       65.65716       73.59781
C         86.87889       65.18356       72.50195
O         86.51034       65.30752       71.34318
C         86.03151       67.18856       73.82351
C         85.79667       68.01351       72.55480
O         85.07678       67.58844       74.77557
H         87.08076       65.10296       75.31845
H         84.89352       65.45509       73.23167
H         87.05642       67.44041       74.18678
H         85.47570       67.44778       75.67368
H         85.86046       69.09539       72.79880
H         86.57029       67.80107       71.78994
H         84.79129       67.80136       72.13335
N         88.13894       64.72256       72.76949
C         89.13584       64.41645       71.74098
C         89.59277       62.96228       71.88026
O         90.06245       62.62124       72.95712
C         90.33738       65.39616       71.90806
C         89.90742       66.88774       71.80135
C         91.47584       65.08543       70.91857
C         89.32033       67.30659       70.44717
H         88.45150       64.63993       73.74562
H         88.73975       64.59080       70.73040
H         90.75481       65.26105       72.93165
H         90.79266       67.52891       72.00370
H         89.15755       67.11341       72.58942
H         92.32047       65.78970       71.07537
H         91.86609       64.06008       71.08309
H         91.13145       65.15817       69.86712
H         88.39576       66.74520       70.21128
H         89.05611       68.38429       70.48107
H         90.05349       67.16155       69.62865
N         89.56355       62.03866       70.86381
C         89.05040       62.26235       69.51130
C         89.39418       61.09989       68.58059
O         89.01888       59.97171       68.87366
C         87.50796       62.44045       69.49399
C         86.75352       61.24797       70.01886
O         86.91144       60.85133       71.29590
O         85.98677       60.63968       69.28915
H         89.97254       61.11280       71.06947
H         89.52238       63.17920       69.09604
H         87.19955       62.63905       68.44283
H         87.18527       63.30489       70.08741
N         90.04199       61.31560       67.39642
C         90.10964       60.28699       66.36136
C         91.24407       60.55721       65.37072
O         91.27816       61.64769       64.81465
C         88.77564       60.28211       65.57542
C         88.76890       59.20365       64.51595
C         88.83686       59.54432       63.15402
C         88.72328       57.84764       64.88207
C         88.87993       58.54375       62.17846
C         88.76185       56.85027       63.90313
C         88.84484       57.19798       62.55258
H         90.29648       62.28332       67.14517
H         90.23180       59.29695       66.84228
H         88.65181       61.28355       65.10577
H         87.90677       60.12934       66.25173
H         88.87909       60.58201       62.84766
H         88.66890       57.56378       65.92588
H         88.94798       58.81206       61.13220
H         88.73494       55.80765       64.19226
H         88.88347       56.42491       61.79616
N         92.16338       59.60118       65.02179
C         92.20213       58.24375       65.53962
C         92.76894       58.16970       66.94365
O         92.69049       57.09831       67.52753
C         93.05331       57.49578       64.51045
C         94.04381       58.56224       64.09002
C         93.14965       59.79550       63.97851
H         91.20239       57.77585       65.54174
H         93.48524       56.53205       64.85591
H         92.41425       57.29004       63.62002
H         94.74652       58.71385       64.93968
H         94.63145       58.33826       63.17439
H         93.75676       60.71592       64.11397
H         92.61372       59.82921       63.00293
N         93.35519       59.24374       67.55157
C         93.85049       59.20321       68.92417
C         94.87027       58.08028       69.07945
O         95.89403       58.12704       68.41203
C         94.51309       60.54401       69.31889
C         93.53183       61.72776       69.33512
C         94.25532       63.00146       69.67111
O         94.90608       63.12386       70.84404
O         94.25711       63.93273       68.88159
H         93.46358       60.11628       67.01699
H         92.98467       59.04227       69.59684
H         95.34332       60.75979       68.60884
H         94.94552       60.44265       70.33959
H         92.73964       61.54781       70.09316
H         93.04374       61.84703       68.34555
N         94.67997       57.01887       69.91683
C         93.50406       56.83773       70.74342
H         92.59268       56.77301       70.11242
H         93.58810       55.89179       71.31895
H         93.40588       57.67842       71.46194
H         95.40985       56.29108       69.96349
Ca        86.05541       62.22554       80.64481
O         82.62958       61.57037       81.59556
H         82.14818       60.75458       81.30748
H         81.91662       62.17830       81.91545
O         84.11492       60.49614       79.00696
H         83.31236       59.92014       79.07258
H         84.74696       59.98072       78.44579
O         87.28902       59.66916       80.53264
H         86.95640       58.80157       80.87278
H         87.41729       59.52913       79.56115
O         87.80411       62.26596       78.45391
H         88.26248       62.58140       79.27334
H         87.66246       63.08813       77.92321

Ca 1.0



