%chk=apoCaM-CA-Ng.loop3.water2.frame969.chk
%nprocshared=20
%mem=10GB
%nosave
#b3lyp/svp scf=(tight,noincore,xqc) Test 
#IOP(5/87=12) Density=Current Pop=(MK,readradii) iop(6/33=2) iop(6/42=6)

apoCaM-CA-Ng.loop3.water2.frame969 

   0  1 
C         74.27826       23.68956       60.88483
C         74.51243       23.36642       62.33262
O         73.58568       23.49728       63.11443
H         73.97430       24.74945       60.77190
H         75.18485       23.50186       60.27253
H         73.46458       23.03690       60.49731
N         75.71766       22.88896       62.75286
C         75.94679       22.36727       64.09701
C         75.84703       23.43685       65.19430
O         76.57458       24.41819       65.13901
C         77.32473       21.66777       64.16833
C         77.42711       20.80329       65.39597
O         78.47679       20.25198       65.67913
O         76.33789       20.63103       66.16940
H         76.46920       22.79169       62.05279
H         75.18486       21.57915       64.25647
H         78.12590       22.44008       64.15632
H         77.47104       21.00125       63.29183
N         74.97337       23.28826       66.23678
C         74.81586       24.25848       67.32305
C         75.99860       24.30315       68.29326
O         76.14156       25.33190       68.94014
C         73.52098       23.97432       68.12557
C         72.25300       24.28160       67.30513
C         70.97936       23.86083       68.05669
C         69.67938       24.33816       67.37900
N         69.49047       23.78788       66.03575
H         74.36783       22.45784       66.24554
H         74.70868       25.27290       66.87596
H         73.48065       24.62362       69.02893
H         73.53185       22.91440       68.46443
H         72.28650       23.75468       66.33675
H         72.22690       25.37601       67.10704
H         70.99679       24.31015       69.07306
H         70.96547       22.75367       68.16609
H         69.67557       25.44916       67.32800
H         68.82230       24.02463       68.01618
H         69.45915       22.74500       66.07463
H         68.57811       24.13220       65.65749
H         70.24797       24.10645       65.39102
N         76.83304       23.23849       68.51670
C         77.94794       23.28430       69.47495
C         79.30124       23.06059       68.79178
O         80.31275       23.07188       69.48005
C         77.68871       22.32465       70.67261
C         77.92148       20.86491       70.39543
O         76.90927       19.98432       70.35490
O         79.05209       20.46301       70.18902
H         76.66642       22.36356       68.00679
H         77.99632       24.29560       69.93457
H         76.64757       22.49143       71.02543
H         78.36576       22.59030       71.51437
N         79.40320       22.91266       67.43532
C         80.66667       22.81407       66.72022
C         81.37608       21.47425       66.80553
O         82.43225       21.37343       66.19724
H         78.55962       22.98197       66.85191
H         81.34162       23.63151       67.05754
H         80.46511       22.97912       65.63964
N         80.89069       20.40742       67.50843
C         81.59029       19.12324       67.58387
C         80.69243       17.94526       67.23604
O         79.49343       17.98962       67.47354
C         82.12780       18.88971       69.00734
C         83.12160       19.94463       69.41852
N         82.89346       20.72366       70.50075
O         84.15053       20.08861       68.77470
H         80.01461       20.51203       68.02903
H         82.46454       19.10877       66.89511
H         82.64295       17.90435       69.05433
H         81.27514       18.86139       69.72006
H         82.03486       20.61460       71.05973
H         83.58037       21.43785       70.78365
N         81.26978       16.79108       66.79815
C         80.58761       15.51544       66.65847
C         79.42915       15.52590       65.69046
O         79.59365       15.94546       64.55390
H         82.28552       16.79079       66.61586
H         80.25065       15.17057       67.66002
H         81.32612       14.77065       66.28942
N         78.23983       14.96823       66.06371
C         77.10442       14.80495       65.15872
C         76.43511       16.12765       64.82792
O         76.86441       17.16579       65.31140
C         76.09428       13.78719       65.75243
C         76.69115       12.39754       65.83264
C         76.81461       11.73130       67.06334
C         77.11636       11.74576       64.65895
C         77.35802       10.44144       67.11670
C         77.66272       10.46237       64.71573
C         77.78537        9.80440       65.94157
O         78.31037        8.56289       65.97594
H         78.17341       14.55759       67.00839
H         77.47210       14.39147       64.19618
H         75.19511       13.69814       65.11045
H         75.75425       14.14173       66.74955
H         76.48868       12.20556       67.98027
H         77.02472       12.22734       63.69401
H         77.44549        9.93716       68.07062
H         77.98778        9.97825       63.80297
H         78.40951        8.06703       66.80081
N         75.38770       16.14247       63.94701
C         74.71089       17.33036       63.43302
C         73.97229       18.08309       64.52985
O         74.55696       18.40839       65.55164
C         75.67715       18.23173       62.61447
C         74.94200       19.41431       61.91900
C         76.44748       17.39355       61.57403
C         73.87964       19.02169       60.88012
H         75.07142       15.24411       63.55320
H         73.95152       16.96527       62.71066
H         76.42896       18.67310       63.30276
H         75.69928       20.04512       61.40523
H         74.45001       20.04484       62.68597
H         75.75283       16.86970       60.88453
H         77.12986       18.03917       60.98348
H         77.07002       16.62145       62.07282
H         73.44003       19.94168       60.44182
H         74.31880       18.42837       60.05344
H         73.04925       18.44635       61.33080
N         72.66669       18.43056       64.34626
C         71.86125       19.10158       65.35263
C         70.55569       18.36782       65.48705
O         69.81148       18.32159       64.51716
C         71.57783       20.54458       64.94458
O         72.78227       21.23101       64.83040
H         72.21952       18.22591       63.44183
H         72.39256       19.13382       66.32537
H         70.95602       21.01072       65.74275
H         71.04217       20.58580       63.97087
H         72.53281       22.18624       64.80290
N         70.19388       17.78880       66.66393
C         68.90658       17.11764       66.81890
C         68.65398       16.69763       68.26070
O         69.60821       16.55776       69.01209
C         68.83036       15.87042       65.92093
H         70.83558       17.87781       67.46514
H         68.14333       17.87005       66.53496
H         68.94579       16.11608       64.84709
H         69.63580       15.15525       66.19607
H         67.85387       15.36570       66.03915
N         67.39982       16.48769       68.76462
C         66.13507       16.66918       68.05356
C         65.30541       15.39507       68.14415
O         65.21635       14.85871       69.24076
C         65.37649       17.83046       68.69011
H         67.33765       16.22456       69.76168
H         66.30805       16.95391       67.01135
H         64.41873       17.99604       68.15176
H         65.16596       17.63004       69.76155
H         65.98623       18.75667       68.61046
N         64.67212       14.80088       67.08722
C         64.53782       15.33102       65.73225
C         65.38593       14.56249       64.73046
O         65.38802       14.95363       63.57023
C         63.04846       15.39281       65.28508
C         62.25017       14.07154       65.34334
C         61.72622       13.76616       66.72233
O         60.97259       14.55250       67.27571
O         62.04381       12.61057       67.33581
H         64.24239       13.88436       67.27033
H         64.89329       16.37260       65.66688
H         63.04846       15.73683       64.22738
H         62.49834       16.17021       65.85926
H         62.85859       13.23366       64.93935
H         61.35084       14.17845       64.69968
N         66.16935       13.50574       65.09203
C         67.04660       12.82019       64.16380
H         68.09312       12.90280       64.52606
H         66.76402       11.74969       64.10820
H         67.00606       13.24938       63.14009
H         66.18023       13.17425       66.06650
Ca        76.22737       19.83292       68.24648
O         73.46691       19.05237       68.59457
H         73.26877       18.11757       68.85209
H         73.46337       19.55704       69.44567
O         75.79766       16.50723       68.23117
H         74.87188       16.21017       68.04320
H         76.11211       15.90097       68.94804

Ca 1.0



