%chk=apoCaM-CA-Ng.loop4.water3.frame333.chk
%nprocshared=20
%mem=10GB
%nosave
#b3lyp/svp scf=(tight,noincore,xqc) Test 
#IOP(5/87=12) Density=Current Pop=(MK,readradii) iop(6/33=2) iop(6/42=6)

apoCaM-CA-Ng.loop4.water3.frame333 

   -3  1 
C         69.33161       49.71483       47.61115
C         69.06027       48.39334       46.96137
O         69.40198       47.37681       47.53771
H         69.97353       50.33409       46.95277
H         68.36927       50.23835       47.79266
H         69.84388       49.57280       48.58780
N         68.41189       48.33741       45.76445
C         68.02069       47.10517       45.08729
C         67.05823       46.30850       45.94048
O         67.34768       45.18133       46.29409
C         69.21163       46.34212       44.44092
C         70.39186       45.86477       45.25830
O         70.32114       44.79897       46.08178
O         71.49498       46.32489       45.00848
H         68.12254       49.22666       45.32929
H         67.41315       47.39112       44.19815
H         69.62194       47.04389       43.68050
H         68.81391       45.46904       43.87831
N         65.86029       46.88459       46.27055
C         64.73701       46.30379       47.01224
C         64.02865       45.21999       46.20390
O         62.88818       45.44498       45.82043
C         65.10277       45.87827       48.46106
C         63.85568       45.43490       49.28279
C         65.84386       47.01407       49.19012
C         62.79176       46.52142       49.51326
H         65.71340       47.85442       45.94852
H         64.00203       47.13295       47.11053
H         65.79107       45.00690       48.41693
H         64.19971       45.08871       50.28040
H         63.36812       44.57102       48.78257
H         66.80009       47.24618       48.67898
H         65.23964       47.94387       49.21673
H         66.07986       46.71297       50.23059
H         62.34951       46.87302       48.55951
H         61.96626       46.10526       50.12791
H         63.21027       47.38802       50.06498
N         64.63032       44.04254       45.87079
C         63.99882       43.05440       45.01133
C         62.83119       42.38523       45.73001
O         61.72567       42.51306       45.22248
C         65.04069       42.07034       44.42344
C         66.07572       42.76020       43.56153
O         66.05509       44.09508       43.36810
O         66.94818       42.09664       43.02528
H         65.57894       43.84388       46.19192
H         63.59040       43.57836       44.11459
H         64.51325       41.32782       43.78616
H         65.59088       41.53537       45.21333
N         62.92285       41.68731       46.90526
C         64.15783       41.41911       47.63844
C         63.93520       40.62799       48.92437
O         62.78766       40.37693       49.26513
H         62.03447       41.31974       47.27747
H         64.65842       42.37318       47.89567
H         64.77772       40.80030       46.98944
N         64.94781       40.16717       49.72772
C         66.39428       40.30863       49.55834
C         66.78127       41.78141       49.65006
O         67.17376       42.35556       48.64486
C         66.90598       39.55757       48.30419
C         68.38559       39.25984       48.34104
O         69.14917       39.61225       49.39388
O         68.89445       38.64625       47.41719
H         64.65844       39.64564       50.56538
H         66.87570       39.75551       50.39060
H         66.69434       40.11349       47.37723
H         66.39529       38.57104       48.25689
N         66.63470       42.50338       50.80400
C         66.31414       41.93498       52.10458
C         64.89651       42.20241       52.50353
O         64.17442       42.89171       51.79575
H         66.78292       43.52009       50.76998
H         67.02744       42.31277       52.86865
H         66.41916       40.83896       52.10502
N         64.39902       41.57370       53.60447
C         62.97954       41.60627       53.91856
C         62.55356       42.93866       54.51723
O         61.35729       43.14319       54.67506
C         62.56853       40.46717       54.88621
C         63.12422       39.06274       54.56016
C         62.97824       38.63575       53.12291
N         61.76933       38.56109       52.52385
O         63.98107       38.33631       52.49344
H         65.03054       40.96176       54.14051
H         62.43314       41.42654       52.96458
H         61.45692       40.42534       54.89268
H         62.90305       40.70501       55.92028
H         62.62026       38.32469       55.21926
H         64.20430       39.03197       54.81972
H         60.90983       38.80132       53.03596
H         61.69776       38.26272       51.53901
N         63.47165       43.85879       54.94396
C         63.11242       45.09771       55.62674
C         63.55161       45.07508       57.09230
O         63.25477       46.03292       57.79066
C         63.66809       46.33777       54.86983
C         63.08505       46.41660       53.45062
C         65.20463       46.37116       54.81019
H         64.47508       43.65416       54.83955
H         62.00564       45.20847       55.65922
H         63.33362       47.24865       55.41519
H         61.97528       46.44749       53.49354
H         63.43481       47.33999       52.94139
H         63.39470       45.54015       52.84278
H         65.63726       46.35739       55.83244
H         65.60936       45.51302       54.23586
H         65.53983       47.30556       54.31154
N         64.21206       44.00621       57.63988
C         64.53920       43.89900       59.06048
C         66.04381       43.77668       59.30523
O         66.42702       43.70281       60.46723
C         63.78444       42.66480       59.60932
C         63.93614       42.45807       61.09616
N         63.49546       43.38777       61.97471
O         64.45265       41.43098       61.51069
H         64.45285       43.19580       57.05362
H         64.19076       44.80201       59.60527
H         64.14719       41.75940       59.07207
H         62.69966       42.77583       59.39298
H         63.04607       44.25433       61.64614
H         63.59722       43.23634       62.98928
N         66.96227       43.76735       58.29390
C         68.40148       43.60693       58.53565
C         69.20902       43.78906       57.25091
O         68.64000       43.64568       56.18332
C         68.66810       42.17739       59.08702
C         70.09977       41.92019       59.48621
C         70.65486       42.57482       60.59794
C         70.88668       41.00850       58.76214
C         71.97528       42.31773       60.98090
C         72.20929       40.76137       59.14006
C         72.75740       41.40998       60.25125
O         74.03125       41.15083       60.60934
H         66.62568       43.89383       57.32910
H         68.70937       44.39765       59.25603
H         68.35798       41.45949       58.29472
H         68.04384       41.95442       59.97539
H         70.06113       43.27355       61.17405
H         70.48037       40.49361       57.90034
H         72.38812       42.82172       61.84569
H         72.80720       40.06115       58.57023
H         74.44592       41.56961       61.37705
N         70.55323       44.04494       57.30900
C         71.52199       44.12966       56.20526
C         71.42340       45.35247       55.28380
O         72.45173       45.98072       55.06722
C         71.75939       42.79766       55.44448
C         70.67182       42.29597       54.48505
C         71.14204       41.05147       53.78557
O         71.43983       39.94801       54.49865
O         71.25276       41.02990       52.57109
H         70.95836       44.15547       58.25154
H         72.51059       44.26322       56.70655
H         71.98039       42.00362       56.19113
H         72.68000       42.94249       54.83372
H         70.44428       43.08343       53.73379
H         69.75361       42.01546       55.02541
N         70.26842       45.73705       54.67153
C         70.18290       46.81234       53.68363
C         70.57459       48.18786       54.21229
O         70.64385       49.10404       53.40265
C         68.74225       46.90087       53.11103
C         68.21653       45.61757       52.43696
C         68.96320       45.27271       51.18453
O         70.14578       44.97671       51.21714
O         68.31059       45.27544       50.01122
H         69.41768       45.22099       54.86609
H         70.89393       46.57694       52.86564
H         68.67695       47.72492       52.36608
H         68.05737       47.14978       53.95102
H         67.15418       45.79661       52.16720
H         68.22783       44.74606       53.12108
N         70.84548       48.43408       55.52471
C         71.24217       49.75041       55.97766
H         72.18146       50.05769       55.46850
H         70.44307       50.48796       55.75018
H         71.41979       49.73972       57.07318
H         70.77052       47.68807       56.22894
Ca        69.36915       44.76892       48.11208
O         69.39669       42.01389       46.41952
H         68.63039       41.39052       46.46170
H         69.60086       42.08499       45.45379
O         72.58990       44.19697       48.62736
H         72.61854       45.08714       48.19527
H         72.44749       44.39219       49.58765
O         70.51784       42.37707       49.75568
H         69.73083       42.05949       49.25015
H         70.19935       42.43197       50.69015

Ca 1.0



