%chk=apoCaM-CA-Ng.loop1.water5.frame621.chk
%nprocshared=20
%mem=10GB
%nosave
#b3lyp/svp scf=(tight,noincore,xqc) Test 
#IOP(5/87=12) Density=Current Pop=(MK,readradii) iop(6/33=2) iop(6/42=6)

apoCaM-CA-Ng.loop1.water5.frame621 

   0  1 
C         68.91138       12.57233      100.86620
C         67.57107       13.22944      101.01863
O         67.17857       13.99772      100.15165
H         69.56298       12.85141      101.72037
H         68.78632       11.46888      100.84932
H         69.40295       12.88945       99.92141
N         66.79840       12.95193      102.10636
C         65.46859       13.52616      102.30885
C         65.51742       15.04554      102.49787
O         66.59006       15.63172      102.43936
C         64.73820       12.81891      103.47467
C         65.28629       13.15381      104.83065
O         66.43568       12.87553      105.13087
O         64.48824       13.75912      105.72982
H         67.15933       12.26480      102.78567
H         64.86576       13.30292      101.40025
H         64.76608       11.71836      103.31732
H         63.66736       13.11181      103.45862
N         64.36783       15.74892      102.71353
C         64.30920       17.20983      102.76188
C         65.20043       17.85944      103.80716
O         65.51036       19.03040      103.63410
C         62.85185       17.69743      102.94482
C         62.24529       17.31546      104.31537
C         60.76820       17.73132      104.39525
C         60.09060       17.33640      105.72078
N         60.61761       18.07963      106.86710
H         63.48356       15.22446      102.76904
H         64.66956       17.56418      101.77022
H         62.23634       17.25598      102.13107
H         62.81699       18.80392      102.83662
H         62.82441       17.81275      105.12036
H         62.30533       16.21672      104.46723
H         60.22490       17.21176      103.57594
H         60.66611       18.82727      104.24000
H         60.19940       16.24249      105.89347
H         59.00404       17.55848      105.62996
H         60.08340       17.80309      107.72272
H         61.62569       17.86117      107.02671
H         60.49307       19.10700      106.71508
N         65.58856       17.20945      104.94082
C         66.40653       17.84485      105.97546
C         67.67696       17.01488      106.21277
O         67.70709       15.86921      105.78309
C         65.53377       18.02569      107.24570
C         65.13282       16.69148      107.79777
O         63.96786       16.32613      107.77847
O         66.10183       15.86381      108.22558
H         65.26156       16.24456      105.09684
H         66.70070       18.85507      105.64069
H         64.62916       18.61063      106.96242
H         66.05279       18.59540      108.03824
N         68.77475       17.46992      106.88744
C         68.97006       18.82325      107.37407
C         69.09050       19.83666      106.25284
O         69.02467       19.48666      105.08197
H         69.54847       16.80578      107.05076
H         69.92022       18.86223      107.95078
H         68.15807       19.10387      108.06931
N         69.27534       21.14483      106.57254
C         69.34008       22.22806      105.59461
C         70.46153       22.05289      104.58295
O         71.57203       21.70958      104.96479
C         69.46910       23.60120      106.29002
C         70.76567       23.79584      107.03728
O         71.52820       24.69000      106.70777
O         71.08761       23.00621      108.07938
H         69.32571       21.37888      107.57491
H         68.37029       22.25282      105.04895
H         68.62065       23.73613      106.99476
H         69.38418       24.38916      105.50849
N         70.23975       22.36072      103.27141
C         71.26011       22.29123      102.23521
C         70.85887       21.41419      101.06380
O         71.64418       21.30788      100.13274
H         69.30991       22.71525      102.99981
H         72.22133       21.92114      102.64400
H         71.43331       23.31840      101.84812
N         69.65120       20.78226      101.00902
C         69.23660       19.95692       99.88052
C         70.05292       18.67997       99.85385
O         70.12906       17.99753      100.86636
C         67.72934       19.62038       99.96025
C         66.86750       20.89058       99.92879
O         67.37793       18.82994       98.84992
H         68.98676       20.89887      101.78440
H         69.37237       20.52671       98.93252
H         67.52283       19.07957      100.91575
H         67.00981       17.97422       99.19103
H         65.79271       20.61683       99.96336
H         67.07734       21.55113      100.79478
H         67.05773       21.46433       98.99563
N         70.65290       18.27228       98.70276
C         71.45405       17.05548       98.62240
C         72.77959       17.29173       99.31701
O         73.20201       16.46404      100.11377
C         71.70130       16.61320       97.14510
C         70.39520       16.50522       96.30688
C         72.46088       15.26743       97.10970
C         69.31217       15.59481       96.89479
H         70.51500       18.83888       97.85364
H         70.90631       16.21502       99.10444
H         72.34000       17.36980       96.63691
H         70.65393       16.14267       95.28768
H         69.94877       17.51173       96.17690
H         71.88495       14.46620       97.61944
H         72.65146       14.95452       96.06153
H         73.44594       15.34988       97.61404
H         68.43660       15.58572       96.21199
H         69.67237       14.55309       97.00861
H         68.96620       15.97827       97.87719
N         73.48210       18.42951       99.05414
C         74.80995       18.72157       99.57957
C         75.71717       19.11598       98.41576
O         75.23243       19.21428       97.29248
C         74.70333       19.83767      100.65318
C         73.81184       19.38197      101.81845
O         75.97233       20.14670      101.16556
H         73.04317       19.14422       98.45039
H         75.24245       17.81750      100.06293
H         74.26389       20.74464      100.17596
H         75.89707       21.02969      101.61406
H         73.76182       20.17424      102.59229
H         72.77900       19.16817      101.47552
H         74.23030       18.46563      102.28711
N         77.04673       19.35227       98.59748
C         77.93484       19.76059       97.51681
C         79.01514       18.71104       97.31315
O         79.09554       18.16067       96.22488
C         78.49270       21.18132       97.79874
C         79.35026       21.70202       96.63860
O         79.23789       21.20036       98.98867
H         77.45390       19.23994       99.53734
H         77.36827       19.84189       96.56077
H         77.61212       21.85806       97.90849
H         79.29907       22.14768       99.27943
H         80.24230       21.05922       96.48463
H         78.75338       21.72821       95.70201
H         79.69409       22.73526       96.85888
N         79.89508       18.40187       98.31009
C         81.00373       17.47293       98.14640
C         80.99703       16.39865       99.21769
O         80.84430       16.70305      100.39211
C         82.33403       18.25502       98.19971
C         83.55175       17.30450       98.15296
C         84.90348       18.01289       98.06383
C         85.15336       18.60963       96.67219
N         86.49264       19.18870       96.59226
H         79.81653       18.88286       99.21611
H         80.97986       16.98637       97.14584
H         82.39229       18.85970       99.13150
H         82.34287       18.94806       97.33245
H         83.46348       16.59520       97.30145
H         83.56070       16.71566       99.09555
H         85.68893       17.24593       98.24222
H         84.98540       18.78560       98.85907
H         84.39999       19.39034       96.43659
H         85.06731       17.79891       95.91316
H         86.65538       19.53980       95.62124
H         86.57772       19.98450       97.26492
H         87.21296       18.46193       96.81141
N         81.37703       15.13645       98.87089
C         81.69075       14.09819       99.84322
C         80.45466       13.63803      100.60112
O         80.47817       13.74579      101.81919
C         82.46643       12.92597       99.18599
C         83.83097       13.39866       98.63778
C         84.58686       12.27811       97.98508
O         84.90918       12.35953       96.81005
O         84.93206       11.18755       98.69510
H         81.56743       14.94721       97.87552
H         82.40343       14.52354      100.58840
H         81.88201       12.46140       98.36780
H         82.65849       12.14629       99.95566
H         84.44745       13.80482       99.46922
H         83.68986       14.20674       97.89092
N         79.33099       13.11920      100.02349
C         79.08902       12.95835       98.60471
H         78.18335       13.53686       98.32725
H         79.91240       13.31492       97.96849
H         78.91097       11.88599       98.38240
H         78.56357       12.82605      100.64793
Ca        65.91657       13.63358      108.18944
O         64.61064       13.40689      110.59460
H         64.20487       12.50704      110.52138
H         63.85556       14.03469      110.46995
O         69.04618       12.77463      107.29874
H         69.53166       13.61407      107.49899
H         69.63441       12.05821      107.64717
O         68.22029       14.61991      109.93448
H         68.03028       15.14556      110.75148
H         68.15219       13.67547      110.22403
O         66.98082       11.13873      109.14301
H         67.20220       10.31538      108.64076
H         66.18128       10.90086      109.67629
O         64.19180       11.36856      107.58170
H         63.45874       11.48782      108.23614
H         63.78370       10.86549      106.83378

Ca 1.0



