%chk=apoCaM-CA-Ng.loop4.water4.frame920.chk
%nprocshared=20
%mem=10GB
%nosave
#b3lyp/svp scf=(tight,noincore,xqc) Test 
#IOP(5/87=12) Density=Current Pop=(MK,readradii) iop(6/33=2) iop(6/42=6)

apoCaM-CA-Ng.loop4.water4.frame920 

   -3  1 
C        -17.46171        0.31582       30.11162
C        -18.58131       -0.34825       30.85576
O        -19.51589       -0.79975       30.21710
H        -16.51468       -0.22701       30.31642
H        -17.64960        0.29210       29.01610
H        -17.36031        1.37111       30.43735
N        -18.54002       -0.42274       32.21896
C        -19.49002       -1.11010       33.09860
C        -19.35656       -2.62392       32.99950
O        -18.92642       -3.23348       33.96887
C        -20.95740       -0.67121       32.91101
C        -21.16032        0.80172       33.10601
O        -20.84192        1.38150       34.27856
O        -21.65299        1.47364       32.21459
H        -17.74790        0.04462       32.68737
H        -19.20066       -0.84485       34.14264
H        -21.58181       -1.20236       33.66200
H        -21.32301       -0.96084       31.90608
N        -19.72432       -3.30273       31.87508
C        -19.63213       -4.74468       31.70276
C        -20.53876       -5.44469       32.70840
O        -20.03526       -6.15589       33.56693
C        -18.14573       -5.24683       31.72267
C        -17.27512       -4.39470       30.75796
C        -18.09196       -6.74132       31.32171
C        -15.80542       -4.82112       30.69530
H        -20.11404       -2.78971       31.08209
H        -20.01396       -4.99637       30.68748
H        -17.72685       -5.13952       32.74719
H        -17.28874       -3.33830       31.10218
H        -17.69748       -4.43009       29.73050
H        -18.46104       -6.87655       30.28247
H        -17.06237       -7.14310       31.39409
H        -18.70559       -7.37790       31.98699
H        -15.69692       -5.83204       30.25226
H        -15.24602       -4.11839       30.04279
H        -15.35070       -4.80793       31.70817
N        -21.90013       -5.34986       32.67428
C        -22.70424       -4.56460       31.73894
C        -23.70429       -3.74578       32.54021
O        -24.35061       -4.31902       33.40799
C        -23.42293       -5.52482       30.77867
C        -24.20560       -4.77568       29.73437
O        -25.40943       -4.94375       29.62926
O        -23.57742       -3.92164       28.90221
H        -22.41794       -5.93045       33.35409
H        -22.08211       -3.90239       31.10886
H        -24.08853       -6.20994       31.34781
H        -22.66008       -6.13978       30.25225
N        -23.90612       -2.41424       32.30875
C        -24.75667       -1.60558       33.17232
C        -26.06173       -1.20089       32.52803
O        -26.80961       -2.07298       32.10845
H        -23.42926       -1.95519       31.51895
H        -24.17935       -0.72795       33.53465
H        -25.04528       -2.17494       34.08099
N        -26.46299        0.10343       32.55241
C        -27.83184        0.51624       32.23409
C        -28.25066        0.35128       30.77750
O        -29.43334        0.52056       30.51148
C        -28.10666        1.96132       32.71755
C        -27.32286        3.02036       31.98316
O        -27.91154        3.89885       31.37372
O        -25.97698        3.03448       32.02117
H        -25.81969        0.79097       32.96980
H        -28.50176       -0.13773       32.83793
H        -27.87359        2.03246       33.80207
H        -29.19337        2.17242       32.60048
N        -27.37872        0.02706       29.77968
C        -27.81677       -0.17491       28.40235
C        -28.34550        1.07143       27.70318
O        -28.78302        0.94175       26.56985
H        -26.38339       -0.12457       29.99712
H        -28.60469       -0.95892       28.39593
H        -26.96093       -0.54923       27.80001
N        -28.30503        2.30786       28.27983
C        -28.73014        3.55001       27.63513
C        -27.92599        3.80723       26.36524
O        -28.48536        4.19908       25.34985
C        -30.25366        3.59072       27.37078
C        -31.09267        3.38782       28.63830
C        -32.56228        3.44782       28.30185
N        -33.36345        2.37439       28.49756
O        -33.03415        4.47685       27.84058
H        -27.89878        2.40654       29.21827
H        -28.48677        4.37869       28.33855
H        -30.52576        2.80601       26.63272
H        -30.50989        4.58179       26.93333
H        -30.85825        4.17617       29.38614
H        -30.84791        2.40070       29.08332
H        -32.98754        1.49437       28.87922
H        -34.36509        2.41994       28.25764
N        -26.58607        3.57607       26.36254
C        -25.70506        3.82921       25.22552
C        -24.53174        4.71415       25.63203
O        -23.66472        4.93967       24.79709
C        -25.20003        2.49020       24.61139
C        -24.53788        1.56244       25.64276
C        -26.33884        1.75679       23.88993
H        -26.16311        3.17745       27.21447
H        -26.23778        4.37350       24.41397
H        -24.44663        2.73070       23.82825
H        -25.27259        1.22103       26.40262
H        -24.13334        0.66137       25.13492
H        -23.69983        2.07990       26.15409
H        -25.95274        0.83821       23.39872
H        -27.14666        1.47557       24.59363
H        -26.76691        2.40838       23.09701
N        -24.43841        5.27920       26.87277
C        -23.28830        6.08549       27.27709
C        -23.58709        6.88042       28.54588
O        -24.60899        6.64358       29.17997
C        -22.08852        5.12908       27.50469
C        -20.78154        5.82676       27.75483
N        -20.21228        6.57971       26.78645
O        -20.21940        5.69335       28.83129
H        -25.21775        5.15564       27.53126
H        -23.09419        6.82537       26.46938
H        -21.93780        4.47174       26.62312
H        -22.33622        4.46900       28.36761
H        -20.66666        6.68280       25.86729
H        -19.30839        7.04621       26.94978
N        -22.75623        7.88201       28.96413
C        -23.03113        8.62247       30.19609
C        -22.18523        9.88937       30.31610
O        -21.29373       10.10605       29.50575
C        -22.76169        7.66964       31.38958
C        -23.43620        8.02898       32.68393
C        -24.83900        8.00158       32.76442
C        -22.68543        8.31769       33.83364
C        -25.48162        8.24793       33.97940
C        -23.33156        8.56913       35.04873
C        -24.73256        8.52743       35.12632
O        -25.36795        8.74254       36.29574
H        -21.95092        8.13068       28.37229
H        -24.09621        8.94218       30.14923
H        -21.66012        7.56918       31.50796
H        -23.14277        6.65301       31.16406
H        -25.43453        7.76216       31.89165
H        -21.60330        8.33380       33.79375
H        -26.56260        8.20556       34.03168
H        -22.74273        8.78179       35.93165
H        -24.88830        8.91647       37.11792
N        -22.43764       10.79317       31.30558
C        -21.66738       12.01643       31.50106
C        -21.09996       12.02159       32.91462
O        -21.76133       12.52835       33.81072
C        -22.54814       13.25868       31.25421
C        -22.97270       13.37600       29.78397
C        -23.79670       14.61230       29.56788
O        -23.40851       15.48547       28.80805
O        -24.97218       14.76143       30.20799
H        -23.22402       10.61811       31.94919
H        -20.83850       12.10105       30.77452
H        -21.95715       14.16754       31.50915
H        -23.44516       13.22430       31.91158
H        -23.56822       12.48995       29.47938
H        -22.06084       13.42497       29.14682
N        -19.91410       11.42744       33.23993
C        -19.03287       10.76266       32.28519
C        -18.40566       11.77261       31.33517
O        -18.22366       12.91998       31.72071
C        -17.92648        9.99562       33.04826
C        -17.08524        9.05784       32.16687
C        -17.93738        7.98071       31.55341
O        -18.64471        7.15123       32.34498
O        -17.99935        7.85635       30.34089
H        -19.64566       11.42560       34.23741
H        -19.64478       10.02123       31.72962
H        -18.40302        9.36979       33.83504
H        -17.25842       10.72373       33.55979
H        -16.31634        8.56893       32.80195
H        -16.55309        9.63503       31.38156
N        -18.05165       11.40618       30.07150
C        -17.44082       12.31028       29.11698
H        -16.44550       11.91589       28.82260
H        -18.08150       12.37900       28.21339
H        -17.30233       13.33313       29.52650
H        -18.21852       10.43788       29.76326
Ca       -17.84501        4.72125       30.82284
O        -18.66395        3.77451       33.51113
H        -18.25180        3.24675       34.23963
H        -19.14339        3.10624       32.95990
O        -17.49550        4.58465       27.93738
H        -17.25978        5.36683       27.37849
H        -17.21014        3.79911       27.40747
O        -21.04350        4.97958       31.93259
H        -21.19112        5.36246       32.83359
H        -21.90607        4.55375       31.69809
O        -19.83245        2.72759       29.66571
H        -20.05224        1.80079       29.39935
H        -20.29396        2.85054       30.53132

Ca 1.0



