%chk=apoCaM-CA-Ng.loop4.water4.frame115.chk
%nprocshared=20
%mem=10GB
%nosave
#b3lyp/svp scf=(tight,noincore,xqc) Test 
#IOP(5/87=12) Density=Current Pop=(MK,readradii) iop(6/33=2) iop(6/42=6)

apoCaM-CA-Ng.loop4.water4.frame115 

   -3  1 
C         34.63693       74.91132      106.63826
C         34.07471       75.73028      107.75826
O         34.50513       75.54978      108.88663
H         35.40595       74.20431      107.02052
H         33.82870       74.33619      106.14409
H         35.12054       75.58642      105.90097
N         33.14162       76.69624      107.50736
C         32.63400       77.61483      108.52207
C         33.78012       78.35405      109.17489
O         33.95051       78.27810      110.37407
C         31.56480       76.98221      109.46231
C         31.71735       75.55234      109.94227
O         32.66736       75.12681      110.79920
O         30.89089       74.73402      109.56922
H         32.84404       76.84731      106.53155
H         32.06759       78.42754      108.01112
H         30.63148       76.97194      108.85321
H         31.35705       77.66550      110.31441
N         34.58312       79.12743      108.38671
C         35.73176       79.93987      108.78723
C         35.34133       81.07000      109.73217
O         35.33190       82.20929      109.28512
C         36.93082       79.08980      109.28848
C         38.18148       79.96029      109.59576
C         37.27461       77.99313      108.26439
C         38.74556       80.73648      108.39727
H         34.35545       79.15270      107.37972
H         36.06757       80.42672      107.84486
H         36.64783       78.57998      110.23491
H         38.98462       79.29966      109.98619
H         37.93551       80.69007      110.39641
H         36.42674       77.29136      108.14404
H         37.50960       78.42083      107.26874
H         38.14586       77.40869      108.60420
H         39.62293       81.33041      108.72298
H         39.07409       80.04602      107.59389
H         38.00982       81.45391      107.98531
N         35.02285       80.85474      111.04272
C         34.58762       81.92626      111.92388
C         35.77891       82.69025      112.49385
O         35.85532       83.87520      112.19946
C         33.57599       81.42403      112.98060
C         32.29967       80.87625      112.38348
O         32.13016       80.82211      111.17475
O         31.32289       80.44482      113.20367
H         35.08234       79.91185      111.43995
H         33.99596       82.65816      111.32369
H         33.29473       82.27842      113.63284
H         34.00877       80.62826      113.60824
N         36.76495       82.16642      113.28815
C         36.86293       80.78217      113.74594
C         38.09009       80.53421      114.63094
O         38.85601       81.46335      114.84410
H         37.49775       82.83215      113.57457
H         36.92176       80.12299      112.85940
H         35.97768       80.55530      114.34838
N         38.40262       79.32172      115.19276
C         37.67061       78.06074      115.08761
C         37.52664       77.67608      113.62113
O         36.40910       77.59865      113.13504
C         36.35883       78.11227      115.90571
C         35.77188       76.74341      116.12027
O         34.51926       76.47088      115.71551
O         36.41636       75.88276      116.70014
H         39.27825       79.27921      115.73896
H         38.27296       77.27891      115.60017
H         35.60343       78.76662      115.43776
H         36.59167       78.51783      116.91465
N         38.61444       77.49760      112.81079
C         39.98941       77.47137      113.28727
C         40.72458       78.74948      112.98963
O         40.21802       79.60836      112.28147
H         38.45928       77.37578      111.80083
H         40.52252       76.58925      112.87213
H         40.02371       77.34636      114.38206
N         41.91880       78.97249      113.60522
C         42.64964       80.22921      113.48038
C         43.31433       80.37521      112.11738
O         43.79134       81.46099      111.81742
C         43.74390       80.32490      114.56321
C         43.18671       80.32062      115.99952
C         44.28074       80.39915      117.04134
N         43.95901       80.45522      118.35376
O         45.45868       80.41278      116.71163
H         42.27366       78.24392      114.24420
H         41.93296       81.06712      113.63494
H         44.31505       81.26882      114.42350
H         44.43523       79.46893      114.43750
H         42.60056       79.39666      116.19036
H         42.51360       81.19556      116.12314
H         42.97363       80.45021      118.65469
H         44.69763       80.51089      119.07102
N         43.44964       79.31151      111.27604
C         44.13974       79.36230      109.98998
C         45.42205       78.54500      110.04265
O         46.45009       79.05445      109.61897
C         43.20704       78.93635      108.82357
C         42.09415       79.97306      108.64451
C         42.58712       77.53606      108.98105
H         43.08231       78.40100      111.57839
H         44.46012       80.40313      109.75237
H         43.80984       78.94235      107.88791
H         42.52831       80.98008      108.46238
H         41.47041       79.71080      107.76497
H         41.45446       80.01927      109.55070
H         41.96540       77.29932      108.09151
H         43.37128       76.75727      109.05319
H         41.92752       77.48100      109.87272
N         45.45921       77.31030      110.62114
C         46.67988       76.52372      110.76053
C         46.44728       75.10519      110.28748
O         47.17556       74.65006      109.41468
C         47.14215       76.52226      112.22751
C         47.50057       77.91532      112.68478
N         46.86088       78.48350      113.73067
O         48.38120       78.53512      112.10624
H         44.60272       76.93885      111.05025
H         47.51148       76.96129      110.16221
H         48.04909       75.88655      112.32713
H         46.34695       76.09697      112.87518
H         46.12572       77.96958      114.23571
H         47.10318       79.43752      114.03745
N         45.44918       74.34044      110.82104
C         45.22359       72.95690      110.41203
C         43.78359       72.51811      110.63217
O         43.02403       73.26416      111.23156
C         46.19285       72.01288      111.17293
C         45.74827       71.73274      112.60372
C         45.62712       72.75523      113.56307
C         45.41541       70.41612      112.97581
C         45.16576       72.46819      114.85339
C         44.96151       70.13117      114.26622
C         44.82941       71.15825      115.20872
O         44.38035       70.89886      116.45371
H         44.82770       74.76902      111.52232
H         45.41055       72.89412      109.31668
H         47.22643       72.41892      111.15184
H         46.22129       71.04958      110.62083
H         45.87556       73.77578      113.32123
H         45.49473       69.60511      112.26300
H         45.06424       73.26687      115.57780
H         44.70505       69.11230      114.52855
H         44.13300       70.00642      116.73626
N         43.37742       71.27587      110.22700
C         42.06258       70.67525      110.45714
C         40.99283       71.18243      109.49284
O         40.38145       70.35878      108.82518
C         41.64642       70.76451      111.94292
C         40.47954       69.82274      112.27300
C         40.14570       69.87833      113.73592
O         39.75732       70.91981      114.24044
O         40.27106       68.77514      114.49871
H         44.08206       70.66745      109.78287
H         42.17951       69.58790      110.24106
H         41.37294       71.80500      112.21622
H         42.51181       70.44945      112.56566
H         40.77446       68.78152      112.01439
H         39.57855       70.09209      111.68242
N         40.71009       72.50881      109.35259
C         39.66431       73.03388      108.47988
C         39.87380       72.70302      107.00638
O         38.96455       72.96621      106.22980
C         39.56732       74.57586      108.62079
C         39.30756       75.10374      110.04572
C         37.98157       74.66012      110.58931
O         37.10017       75.47715      110.79426
O         37.76697       73.36536      110.88537
H         41.23788       73.18036      109.90367
H         38.70452       72.56726      108.78336
H         38.75795       74.95975      107.96037
H         40.52686       75.01767      108.26993
H         39.33558       76.20928      109.99243
H         40.10510       74.81839      110.75987
N         41.02234       72.14317      106.53086
C         41.18248       71.81186      105.13197
H         42.18891       71.37637      104.95812
H         40.41591       71.06520      104.83235
H         41.07397       72.72476      104.50873
H         41.81388       71.94868      107.15871
Ca        34.42579       76.09956      111.80451
O         33.04343       78.01319      113.36440
H         32.22521       77.70339      112.90056
H         32.82593       77.94468      114.32655
O         36.19945       74.29633      113.45808
H         36.49390       74.56580      114.36234
H         36.46737       73.34662      113.38404
O         34.50757       72.88563      111.27298
H         35.23203       72.93652      110.60144
H         33.73823       72.51327      110.77409
O         32.87134       74.50205      113.86657
H         32.50589       75.03023      114.61982
H         33.43472       73.81050      114.29611

Ca 1.0



