%chk=apoCaM-CA-Ng.loop3.water2.frame547.chk
%nprocshared=20
%mem=10GB
%nosave
#b3lyp/svp scf=(tight,noincore,xqc) Test 
#IOP(5/87=12) Density=Current Pop=(MK,readradii) iop(6/33=2) iop(6/42=6)

apoCaM-CA-Ng.loop3.water2.frame547 

   0  1 
C         42.85933       17.65183       66.62131
C         41.41912       17.31445       66.37750
O         40.55555       18.14297       66.62985
H         43.41795       17.59180       65.66248
H         42.96244       18.68080       67.02645
H         43.29659       16.93139       67.34287
N         41.09081       16.10634       65.84442
C         39.72257       15.74336       65.50077
C         38.88202       15.59100       66.75670
O         39.18055       14.72615       67.56921
C         39.72878       14.44091       64.66798
C         38.45847       14.18115       63.90687
O         38.38621       13.19733       63.18834
O         37.43861       15.05922       63.92086
H         41.85788       15.45417       65.61577
H         39.31897       16.55102       64.85718
H         39.98717       13.57532       65.31555
H         40.51498       14.52765       63.89005
N         37.82096       16.41303       66.98995
C         36.97685       16.29860       68.17656
C         36.25261       14.96501       68.20304
O         36.15241       14.37301       69.26877
C         35.95254       17.45404       68.23038
C         35.11321       17.43441       69.52603
C         34.14160       18.62268       69.59653
C         33.23132       18.58819       70.84024
N         33.97807       18.70584       72.09487
H         37.61178       17.15365       66.30188
H         37.61162       16.40130       69.08612
H         35.28056       17.40169       67.34562
H         36.51685       18.41234       68.19878
H         35.80475       17.46875       70.39401
H         34.52159       16.49537       69.57219
H         33.48329       18.59269       68.70115
H         34.70949       19.57854       69.58038
H         32.63524       17.64865       70.84649
H         32.51957       19.44063       70.77006
H         34.54851       19.58226       72.09562
H         33.29916       18.74707       72.88944
H         34.59409       17.87552       72.24185
N         35.71847       14.43726       67.06410
C         34.90817       13.22339       67.04558
C         35.65703       12.01021       66.49628
O         35.08361       10.93008       66.50546
C         33.57393       13.52225       66.32342
C         33.74000       13.97169       64.89653
O         34.20327       13.21650       64.06217
O         33.35593       15.20933       64.52801
H         35.88949       14.92126       66.16974
H         34.64445       12.93345       68.08599
H         33.06464       14.33821       66.88151
H         32.91293       12.63053       66.34621
N         36.95615       12.08398       66.08058
C         37.76179       10.92352       65.70922
C         37.33890       10.18332       64.45206
O         38.01899        9.22390       64.11179
H         37.44199       12.98880       66.11091
H         37.77222       10.20870       66.56079
H         38.80698       11.26421       65.54577
N         36.24773       10.53448       63.71849
C         35.80440        9.82811       62.51965
C         35.67812       10.79004       61.35113
O         35.89704       11.98199       61.53379
C         34.46380        9.12250       62.82568
C         33.36725       10.07693       63.24579
N         32.82399       10.00219       64.48353
O         32.96415       10.92250       62.46123
H         35.67791       11.32736       64.02684
H         36.53544        9.04063       62.23195
H         34.65186        8.39126       63.64203
H         34.11777        8.54406       61.94359
H         33.14781        9.29926       65.16368
H         32.07946       10.65586       64.76765
N         35.29414       10.35241       60.11718
C         35.05086       11.27271       59.01755
C         36.28852       12.03666       58.60633
O         37.38856       11.69355       59.01589
H         35.10914        9.34899       59.96563
H         34.27992       11.99785       59.35775
H         34.64489       10.73779       58.13296
N         36.15036       13.14460       57.82218
C         37.25785       14.02887       57.45238
C         37.99270       14.57217       58.67570
O         37.63382       14.25795       59.80147
C         36.73019       15.16399       56.54013
C         36.45797       14.63753       55.15031
C         35.15118       14.45886       54.66958
C         37.54496       14.32679       54.31290
C         34.93924       13.96633       53.37493
C         37.33153       13.85158       53.01773
C         36.02623       13.66593       52.54437
O         35.80632       13.20318       51.29684
H         35.19753       13.38695       57.50881
H         38.01999       13.44017       56.89474
H         37.45875       15.99308       56.42288
H         35.82294       15.60477       57.00831
H         34.29931       14.68545       55.29762
H         38.56138       14.46807       54.66074
H         33.92898       13.81939       53.01476
H         38.18171       13.62932       52.38435
H         36.53203       12.99195       50.69144
N         39.12560       15.30910       58.49144
C         40.13239       15.59694       59.51071
C         39.64122       16.41493       60.70456
O         38.78891       15.95379       61.44697
C         40.78185       14.26481       60.01982
C         41.95409       14.50056       61.01536
C         41.24076       13.36593       58.85399
C         43.16755       15.23702       60.43673
H         39.38229       15.56965       57.52652
H         40.93621       16.16647       58.99810
H         40.00977       13.68841       60.57566
H         42.30037       13.51498       61.39612
H         41.58975       15.07637       61.88990
H         41.68124       12.42491       59.24769
H         40.38201       13.07963       58.21219
H         41.98865       13.87848       58.21559
H         43.61995       14.66870       59.59903
H         42.89813       16.25409       60.08995
H         43.93893       15.34421       61.22771
N         40.28740       17.56918       61.04146
C         40.18341       18.15944       62.37707
C         38.83235       18.76527       62.73570
O         38.66018       19.11158       63.89757
C         41.28568       19.21278       62.58733
O         42.55533       18.63601       62.41680
H         41.01241       17.92500       60.40137
H         40.38985       17.34117       63.09591
H         41.23808       19.61724       63.62112
H         41.13671       20.07420       61.89439
H         42.86600       18.86614       61.50256
N         37.84470       18.97302       61.82234
C         36.57887       19.60833       62.18577
C         35.75736       18.70656       63.09801
O         35.52805       17.57283       62.70679
C         35.76363       19.92633       60.92905
H         38.01505       18.72548       60.83610
H         36.80261       20.57814       62.66137
H         36.34450       20.60009       60.26433
H         35.51213       19.00347       60.37199
H         34.81995       20.44246       61.20670
N         35.22897       19.09447       64.29982
C         35.33588       20.42331       64.89718
C         34.71423       21.47335       63.98399
O         33.56274       21.28655       63.61471
C         34.58305       20.46385       66.23596
H         34.68101       18.38487       64.81400
H         36.39335       20.61040       65.13854
H         35.01670       19.73136       66.93827
H         34.66714       21.46915       66.70048
H         33.50562       20.22677       66.09829
N         35.34606       22.61715       63.57677
C         36.67183       23.06521       63.99437
C         37.40660       23.73347       62.84423
O         38.48640       23.27194       62.49890
C         36.60340       23.91245       65.29207
C         35.82324       25.23934       65.25924
C         34.35805       25.05841       64.97984
O         33.60395       24.29290       65.79202
O         33.84011       25.61650       64.02580
H         34.79285       23.26099       62.99167
H         37.30691       22.20457       64.26632
H         37.64681       24.14882       65.59566
H         36.17022       23.27892       66.09610
H         36.28509       25.93604       64.53128
H         35.91332       25.71381       66.25982
N         36.88240       24.80859       62.18998
C         37.55266       25.48170       61.09614
H         38.54351       25.03747       60.86495
H         36.92014       25.42251       60.18622
H         37.70310       26.54880       61.36213
H         35.95930       25.17209       62.45944
Ca        35.82070       14.78966       62.37205
O         35.35610       16.31641       59.70838
H         36.11001       16.88205       59.40447
H         34.55393       16.88711       59.60392
O         33.18156       14.06140       60.98019
H         32.97577       14.90043       61.46416
H         33.28367       14.33871       60.03519

Ca 1.0



