%chk=apoCaM-CA-Ng.loop4.water2.frame491.chk
%nprocshared=20
%mem=10GB
%nosave
#b3lyp/svp scf=(tight,noincore,xqc) Test 
#IOP(5/87=12) Density=Current Pop=(MK,readradii) iop(6/33=2) iop(6/42=6)

apoCaM-CA-Ng.loop4.water2.frame491 

   -3  1 
C         55.66324       60.37943       98.37263
C         54.87634       60.98099       99.49797
O         53.81365       61.51990       99.23605
H         56.60602       59.92002       98.73508
H         55.05345       59.59544       97.87551
H         55.91222       61.16820       97.63208
N         55.32345       60.90031      100.78518
C         54.61203       61.43530      101.94187
C         53.21337       60.84664      102.04311
O         52.23167       61.57018      102.01621
C         54.75066       62.97731      102.06565
C         54.27025       63.81578      100.91867
O         53.08786       63.86264      100.63564
O         55.14644       64.57592      100.23313
H         56.20302       60.39416      100.96849
H         55.13538       61.07702      102.85750
H         55.83499       63.19032      102.19227
H         54.23950       63.31738      102.99330
N         53.09700       59.49794      102.22855
C         51.87414       58.73471      102.47854
C         51.20366       59.21760      103.75947
O         51.41825       58.60257      104.79482
C         50.91516       58.65448      101.25351
C         49.66639       57.76739      101.53298
C         51.64741       58.18432       99.98637
C         49.96731       56.29556      101.84548
H         53.97485       58.95534      102.25715
H         52.22490       57.69693      102.67286
H         50.55085       59.67031      101.02453
H         48.99677       57.80195      100.64661
H         49.09582       58.18628      102.38863
H         52.09105       57.17736      100.12025
H         50.94048       58.15798       99.12875
H         52.46195       58.89232       99.72697
H         50.49458       55.80482      101.00309
H         50.57412       56.19175      102.76736
H         49.01275       55.75320      102.01173
N         50.36851       60.29798      103.76433
C         49.79234       60.87347      104.96862
C         48.32078       60.48160      105.17147
O         48.06242       59.98800      106.26142
C         50.05860       62.39127      105.01700
C         51.51940       62.75313      105.13085
O         51.84095       63.92949      105.18121
O         52.47726       61.80717      105.19188
H         50.14465       60.76482      102.87908
H         50.31345       60.46959      105.86864
H         49.54011       62.82043      105.90220
H         49.68366       62.86835      104.09927
N         47.28248       60.56891      104.27635
C         47.28532       60.98696      102.88336
C         47.33284       62.49039      102.67363
O         47.45443       63.22180      103.64362
H         46.37801       60.19188      104.60333
H         46.31705       60.66049      102.44750
H         48.06562       60.43446      102.33782
N         47.17196       63.06478      101.43842
C         46.81146       62.32927      100.22271
C         47.84165       61.28217       99.82757
O         48.96689       61.37124      100.29124
C         46.52344       63.29891       99.04019
C         47.67782       64.17365       98.62275
O         48.85767       64.13253       99.26396
O         47.53611       64.94601       97.68863
H         47.21503       64.09479      101.38778
H         45.86786       61.80055      100.46966
H         45.67949       63.96187       99.32496
H         46.21330       62.73204       98.14084
N         47.54640       60.22104       99.01393
C         46.24675       59.96620       98.40434
C         45.61836       58.69974       98.91308
O         46.20418       58.00963       99.73444
H         48.29024       59.52999       98.82830
H         46.37077       59.89867       97.30276
H         45.51429       60.75993       98.61312
N         44.36966       58.35981       98.48322
C         43.67359       57.16259       98.94153
C         44.30766       55.87319       98.41209
O         43.96373       54.81906       98.92433
C         42.14041       57.28140       98.73264
C         41.63260       57.46582       97.29123
C         41.77232       56.23432       96.44876
N         41.11987       55.09970       96.78658
O         42.44642       56.26763       95.43322
H         43.89067       59.02222       97.85783
H         43.78893       57.13271      100.04992
H         41.82015       58.18757       99.29350
H         41.62713       56.41750       99.20695
H         42.13613       58.32859       96.81418
H         40.54892       57.70959       97.32898
H         40.52307       55.06191       97.62428
H         41.19119       54.25976       96.20116
N         45.29260       55.88775       97.45683
C         46.11443       54.71703       97.12643
C         46.05074       54.27514       95.66734
O         46.69028       53.26740       95.38217
C         47.60430       54.97987       97.52027
C         47.78576       55.03250       99.04115
C         48.18188       56.25183       96.87008
H         45.52841       56.77661       97.00012
H         45.77064       53.83207       97.70606
H         48.21826       54.11795       97.17684
H         48.85745       55.18191       99.28875
H         47.20116       55.85022       99.49287
H         47.45809       54.07517       99.49836
H         49.26170       56.34395       97.11050
H         48.07458       56.21476       95.76570
H         47.68231       57.16785       97.24892
N         45.32642       54.90458       94.69469
C         45.28507       54.40216       93.31782
C         45.73650       55.41285       92.27078
O         45.79880       55.01177       91.11762
C         43.85779       53.94221       92.94143
C         43.31132       52.84939       93.82221
N         43.93076       51.65106       93.92324
O         42.27049       53.03797       94.42814
H         44.77061       55.73552       94.93694
H         45.96090       53.52654       93.20395
H         43.85837       53.54836       91.90125
H         43.17484       54.81954       92.97239
H         44.80021       51.45683       93.40773
H         43.52977       50.90885       94.51635
N         46.01915       56.72671       92.54346
C         46.20382       57.67960       91.44838
C         47.08786       58.87155       91.79762
O         46.88218       59.50375       92.82233
C         44.84280       58.17467       90.91453
C         44.05070       58.98972       91.90810
C         44.09617       60.38976       91.84897
C         43.25432       58.37394       92.88467
C         43.37750       61.16767       92.75448
C         42.51520       59.15493       93.78127
C         42.57946       60.55156       93.72488
O         41.87129       61.28972       94.60259
H         45.91091       57.08717       93.50039
H         46.67486       57.16052       90.58439
H         44.21967       57.33296       90.54069
H         45.06097       58.80482       90.02334
H         44.70176       60.87787       91.10871
H         43.19337       57.29539       92.94022
H         43.44100       62.24698       92.69606
H         41.88915       58.67762       94.51908
H         41.89577       62.25756       94.59455
N         48.01063       59.29769       90.87889
C         48.81564       60.52164       90.93327
C         49.94823       60.51324       91.94301
O         50.83429       61.34427       91.78705
C         47.95439       61.79866       91.07508
C         47.04349       62.02691       89.86126
C         46.18529       63.24677       90.06325
O         44.96844       63.15828       90.02653
O         46.75490       64.44781       90.27997
H         48.09728       58.75470       90.00630
H         49.34453       60.58236       89.95359
H         48.62164       62.68479       91.15774
H         47.35400       61.75001       92.00740
H         46.40384       61.13785       89.68528
H         47.67096       62.17796       88.95722
N         50.02949       59.63965       92.98340
C         51.19829       59.60183       93.85116
C         52.33598       58.95302       93.09503
O         53.37094       59.57942       92.91241
C         50.90362       58.82365       95.14892
C         49.83602       59.47907       96.04381
C         50.29339       60.77460       96.65380
O         50.49767       60.83348       97.98069
O         50.47622       61.76896       95.97053
H         49.26743       58.97590       93.16289
H         51.49813       60.63165       94.13565
H         51.83818       58.72645       95.74577
H         50.55696       57.80090       94.88974
H         49.64803       58.77590       96.87988
H         48.87701       59.62639       95.50246
N         52.19883       57.68894       92.60799
C         53.24729       57.02723       91.86641
H         54.15571       56.93191       92.49750
H         52.91114       56.01139       91.56767
H         53.48598       57.60677       90.94965
H         51.31586       57.17837       92.75982
Ca        51.21983       62.71690       98.96262
O         51.65436       64.78008       96.83130
H         52.10095       63.90763       96.69091
H         52.39691       65.43400       96.85442
O         50.41684       64.45252      101.70196
H         49.96420       65.32919      101.62016
H         50.90284       64.50287      102.56226

Ca 1.0



