%chk=apoCaM-CA-Ng.loop4.water3.frame196.chk
%nprocshared=20
%mem=10GB
%nosave
#b3lyp/svp scf=(tight,noincore,xqc) Test 
#IOP(5/87=12) Density=Current Pop=(MK,readradii) iop(6/33=2) iop(6/42=6)

apoCaM-CA-Ng.loop4.water3.frame196 

   -3  1 
C         -2.16622       36.27476       28.26171
C         -3.20692       37.31509       28.53856
O         -3.79293       37.82234       27.59570
H         -1.18919       36.60328       28.67132
H         -2.46572       35.31639       28.73421
H         -2.05926       36.11203       27.16669
N         -3.51276       37.66176       29.82296
C         -4.53730       38.63793       30.18003
C         -5.88659       38.24054       29.62000
O         -6.46605       38.98905       28.86198
C         -4.08338       40.11127       29.94516
C         -3.31946       40.48890       28.68959
O         -3.83817       40.49918       27.44338
O         -2.16265       40.85973       28.81711
H         -3.02727       37.17344       30.59079
H         -4.69415       38.59700       31.28261
H         -3.37154       40.31629       30.77793
H         -4.93930       40.80254       30.10293
N         -6.44843       37.06128       30.02189
C         -7.75707       36.51262       29.64964
C         -8.91320       37.36941       30.16753
O         -9.57260       36.93094       31.10076
C         -7.86334       36.16283       28.13842
C         -9.22038       35.49300       27.77675
C         -6.68814       35.26740       27.70097
C         -9.51793       34.17119       28.50073
H         -5.89543       36.48620       30.67741
H         -7.82354       35.54713       30.19990
H         -7.79586       37.10048       27.54643
H         -9.23670       35.29656       26.68331
H        -10.04932       36.19892       27.99776
H         -5.72120       35.78661       27.85976
H         -6.66223       34.32040       28.27928
H         -6.76729       35.02780       26.61912
H        -10.49626       33.77591       28.15577
H         -8.74768       33.40494       28.28032
H         -9.58786       34.31522       29.59811
N         -9.22725       38.58796       29.63543
C        -10.26068       39.44474       30.20027
C        -11.65925       38.98707       29.77657
O        -12.40197       38.59957       30.66766
C         -9.95389       40.94084       29.94199
C         -8.66849       41.40477       30.58629
O         -7.88840       40.56033       31.29073
O         -8.32841       42.57110       30.47037
H         -8.70259       38.94892       28.83390
H        -10.21545       39.35854       31.31175
H        -10.78108       41.55309       30.36123
H         -9.85421       41.15796       28.86740
N        -12.13703       38.96691       28.49193
C        -11.39752       39.41256       27.31921
C        -12.17678       39.29715       26.01124
O        -13.30974       38.83810       26.03957
H        -13.09781       38.61360       28.36805
H        -10.47517       38.80903       27.24489
H        -11.18788       40.47399       27.45013
N        -11.66910       39.67204       24.79083
C        -10.34243       40.22171       24.50012
C         -9.27220       39.25990       24.99113
O         -8.51410       39.61950       25.87883
C        -10.19205       41.67372       25.02551
C         -8.95263       42.37409       24.52119
O         -8.16255       41.81465       23.77627
O         -8.72218       43.64884       24.88772
H        -12.27792       39.52197       23.97037
H        -10.25070       40.32509       23.39617
H        -10.16689       41.71444       26.12524
H        -11.06429       42.26566       24.67412
N         -9.17095       37.98372       24.52402
C         -9.91795       37.44901       23.39786
C        -10.94341       36.43500       23.82022
O        -11.16850       36.23502       25.00572
H         -8.49418       37.35086       24.97801
H         -9.18981       36.98485       22.69833
H        -10.45532       38.22787       22.82621
N        -11.60529       35.74260       22.85464
C        -12.61749       34.73071       23.12399
C        -12.05477       33.32387       22.96584
O        -12.77889       32.37859       23.24588
C        -13.91307       35.01664       22.31975
C        -13.75566       35.29940       20.81096
C        -13.13403       34.17860       20.02749
N        -13.73109       32.96814       19.95226
O        -12.08904       34.37750       19.42770
H        -11.31892       35.89748       21.87638
H        -12.91162       34.76234       24.19689
H        -14.36921       35.93651       22.74775
H        -14.63734       34.19004       22.48489
H        -13.15583       36.22485       20.67470
H        -14.75955       35.51001       20.38352
H        -14.62342       32.78979       20.43441
H        -13.30528       32.21128       19.39828
N        -10.74127       33.11275       22.65444
C        -10.07772       31.81730       22.76752
C         -9.47969       31.34389       21.45013
O         -8.79641       30.32886       21.47427
C         -9.00121       31.87289       23.89771
C         -9.65485       32.08781       25.27168
C         -7.92705       32.94534       23.66125
H        -10.14519       33.91296       22.40812
H        -10.79643       31.02196       23.06606
H         -8.49159       30.88460       23.93935
H        -10.18235       33.06400       25.31921
H        -10.38456       31.27569       25.47825
H         -8.88322       32.06258       26.07065
H         -7.44026       32.79201       22.67672
H         -8.36007       33.96560       23.70111
H         -7.14806       32.88585       24.45115
N         -9.72999       31.97050       20.26047
C         -9.24652       31.46434       18.97482
C         -8.33846       32.45729       18.25321
O         -7.73978       32.04822       17.26695
C        -10.44885       31.17892       18.03275
C        -11.45605       30.11421       18.42623
N        -11.30347       29.29185       19.49037
O        -12.44840       29.98635       17.72469
H        -10.32685       32.80609       20.25269
H         -8.65329       30.53484       19.11614
H        -10.07197       30.88857       17.02758
H        -11.00567       32.13584       17.91764
H        -10.47516       29.32058       20.08795
H        -12.02207       28.58424       19.70467
N         -8.26139       33.78056       18.59204
C         -7.56124       34.76077       17.76453
C         -6.69449       35.69514       18.58959
O         -7.18427       36.25221       19.56140
C         -8.59193       35.63199       17.01491
C         -9.51000       34.85275       16.10207
C         -8.99585       34.07531       15.04840
C        -10.90130       34.92750       16.27903
C         -9.86018       33.38435       14.19304
C        -11.76297       34.24037       15.42049
C        -11.24809       33.46810       14.37511
O        -12.09453       32.81879       13.55062
H         -8.82031       34.14212       19.37674
H         -6.93578       34.26963       16.98834
H         -8.04804       36.36049       16.37819
H         -9.19048       36.20783       17.75535
H         -7.92856       34.00585       14.88219
H        -11.32237       35.52851       17.07443
H         -9.45067       32.79060       13.38530
H        -12.83327       34.31535       15.56471
H        -11.78093       32.28346       12.80784
N         -5.43851       36.02430       18.15777
C         -4.61927       37.10918       18.70813
C         -4.09804       36.86143       20.11676
O         -3.42849       37.74555       20.63469
C         -5.37551       38.46469       18.65686
C         -5.88887       38.81183       17.25267
C         -6.61457       40.12670       17.26317
O         -7.70878       40.28887       18.03272
O         -6.22486       41.05020       16.56710
H         -5.07692       35.55992       17.31050
H         -3.71962       37.21547       18.06058
H         -4.68738       39.27564       18.98365
H         -6.22926       38.45430       19.36572
H         -6.59699       38.03728       16.90254
H         -5.03403       38.85326       16.54324
N         -4.32452       35.70045       20.79457
C         -3.86006       35.47669       22.16079
C         -2.82423       34.36496       22.23602
O         -2.35619       34.09200       23.33388
C         -5.07148       35.13843       23.05280
C         -6.11192       36.26839       23.12277
C         -5.56464       37.49019       23.80084
O         -5.52953       38.56040       23.21516
O         -5.12250       37.40885       25.06917
H         -4.84704       34.93734       20.34163
H         -3.36225       36.38269       22.57090
H         -4.73705       34.90488       24.08768
H         -5.55801       34.23041       22.64063
H         -6.97995       35.91463       23.71401
H         -6.47334       36.52014       22.10349
N         -2.38883       33.69136       21.13277
C         -1.38678       32.65146       21.22514
H         -0.44496       33.06856       21.64210
H         -1.75015       31.83134       21.88029
H         -1.17535       32.23641       20.21710
H         -2.75907       33.91269       20.19804
Ca        -5.80315       39.93882       26.49866
O         -7.01306       42.47956       27.58131
H         -6.74119       41.81554       28.26341
H         -7.95596       42.25429       27.38153
O         -4.84781       42.11274       24.34357
H         -5.71681       42.14288       24.81642
H         -5.08327       41.90736       23.40398
O         -2.61289       39.94081       24.84510
H         -1.93842       39.89123       25.56854
H         -2.20182       39.45333       24.08823

Ca 1.0



