%chk=apoCaM-CA-Ng.loop1.water4.frame172.chk
%nprocshared=20
%mem=10GB
%nosave
#b3lyp/svp scf=(tight,noincore,xqc) Test 
#IOP(5/87=12) Density=Current Pop=(MK,readradii) iop(6/33=2) iop(6/42=6)

apoCaM-CA-Ng.loop1.water4.frame172 

   0  1 
C         81.26737       37.87430       28.84933
C         82.10493       37.57839       27.63734
O         82.04254       36.46921       27.12790
H         80.19317       37.74341       28.60578
H         81.54686       37.18170       29.67038
H         81.42130       38.91520       29.20760
N         82.92685       38.53400       27.12571
C         83.78592       38.32767       25.96349
C         84.72350       37.13479       26.15233
O         84.70593       36.24128       25.31911
C         84.55117       39.62555       25.59186
C         85.44837       40.19001       26.66481
O         84.94650       40.64351       27.82972
O         86.64220       40.29443       26.45559
H         82.92303       39.45414       27.58567
H         83.13799       38.10509       25.08566
H         83.81727       40.41582       25.32278
H         85.16019       39.41589       24.68409
N         85.55349       37.04314       27.22724
C         86.47454       35.92279       27.45060
C         85.71287       34.61107       27.66098
O         84.76530       34.64623       28.43394
C         87.34255       36.17498       28.70324
C         88.18569       37.46814       28.67371
C         89.14935       37.55851       27.47551
C         90.14315       38.72906       27.59172
N         89.49673       40.04047       27.54560
H         85.51939       37.80545       27.91762
H         87.16627       35.85507       26.60431
H         88.03593       35.31451       28.82657
H         86.69168       36.21038       29.60427
H         88.78096       37.47860       29.61202
H         87.52114       38.35354       28.68784
H         88.58288       37.64537       26.52244
H         89.75502       36.62985       27.44505
H         90.86181       38.66229       26.74485
H         90.71810       38.62803       28.53768
H         89.04628       40.17341       26.61368
H         88.79912       40.15012       28.31512
H         90.22503       40.78108       27.66122
N         86.04276       33.39366       27.11071
C         87.16227       33.05526       26.23074
C         88.51859       33.35625       26.86445
O         89.12756       34.34774       26.49092
C         87.04401       33.65962       24.82184
C         85.82861       33.27533       24.05007
O         85.73051       33.76231       22.80550
O         84.95397       32.55647       24.50847
H         85.44503       32.59438       27.37626
H         87.13676       31.96362       26.01718
H         87.89170       33.28122       24.22498
H         87.09449       34.75950       24.82988
N         89.14444       32.52242       27.74671
C         88.63769       31.24631       28.22081
C         88.74186       31.12143       29.72844
O         89.18953       32.05498       30.37962
H         90.09251       32.78531       28.05133
H         89.25738       30.44749       27.76520
H         87.58429       31.09322       27.92640
N         88.32714       29.99836       30.38530
C         87.75288       28.83841       29.70687
C         88.79922       28.04658       28.93027
O         89.99099       28.24902       29.12108
C         86.98240       27.94347       30.70663
C         87.83066       27.40091       31.82693
O         88.76263       26.64862       31.59379
O         87.54635       27.73103       33.10209
H         88.37208       30.00484       31.41664
H         86.98810       29.20574       28.99093
H         86.50397       27.09570       30.17172
H         86.16927       28.55841       31.15217
N         88.39607       27.11558       28.02104
C         89.29946       26.25515       27.27544
C         90.28067       27.00583       26.39884
O         91.47509       26.79987       26.56204
H         87.38486       26.98766       27.86280
H         88.69685       25.58858       26.62009
H         89.85295       25.60704       27.99059
N         89.85317       27.85625       25.41935
C         90.75917       28.50278       24.46695
C         90.71852       30.01292       24.61823
O         89.65734       30.60637       24.48120
C         90.38405       28.11367       23.01939
C         90.53340       26.60886       22.77895
O         91.22617       28.79749       22.12499
H         88.84020       28.02621       25.32204
H         91.80677       28.16786       24.63382
H         89.32138       28.40984       22.84497
H         90.71420       28.92688       21.28421
H         89.87311       26.03008       23.45743
H         90.25466       26.37006       21.73054
H         91.58748       26.29683       22.94305
N         91.86693       30.69817       24.89498
C         91.91912       32.15098       25.03853
C         91.78007       32.82711       23.67016
O         92.61674       32.61459       22.80509
C         93.18248       32.60329       25.84707
C         94.53346       32.34441       25.12161
C         93.15924       31.92876       27.23893
C         95.75178       32.84408       25.90270
H         92.72692       30.15254       25.04407
H         91.06021       32.45240       25.67522
H         93.08854       33.70071       26.00597
H         94.54531       32.89319       24.16069
H         94.67412       31.26390       24.91170
H         93.29427       30.82934       27.16125
H         93.94717       32.33162       27.90358
H         92.19770       32.12019       27.74938
H         95.65028       33.92770       26.12409
H         95.88704       32.28273       26.84907
H         96.66811       32.68884       25.29561
N         90.69210       33.60203       23.38937
C         90.41416       34.18676       22.07512
C         89.82837       35.58450       22.22104
O         88.88178       35.74913       22.97786
C         89.38006       33.32695       21.30904
C         89.86384       31.89267       21.09082
O         89.14922       33.91244       20.04977
H         89.97825       33.69551       24.11811
H         91.33131       34.21331       21.44434
H         88.43497       33.28989       21.90004
H         88.17615       33.85293       19.86472
H         90.81723       31.88418       20.52056
H         90.01764       31.38156       22.05928
H         89.10022       31.32203       20.52198
N         90.26018       36.60990       21.43052
C         89.62177       37.92422       21.41756
C         88.93726       38.13441       20.07951
O         89.59767       38.08553       19.05102
C         90.64646       39.04950       21.67329
C         91.26495       38.92976       23.06739
O         89.99657       40.29306       21.57118
H         91.02042       36.43378       20.75604
H         88.84935       37.99914       22.21400
H         91.44868       38.97724       20.90029
H         90.68493       40.96396       21.32204
H         91.99264       39.75362       23.22506
H         90.47344       39.00327       23.84471
H         91.79630       37.96225       23.17925
N         87.59995       38.40882       20.03464
C         86.91692       38.81493       18.80798
C         85.40130       38.57648       18.83590
O         84.76009       38.95571       17.86423
C         87.30972       40.28782       18.50239
C         86.89808       41.29520       19.59743
C         87.70986       42.59751       19.47616
C         87.36029       43.59343       20.59274
N         88.28716       44.72697       20.59345
H         87.11441       38.51751       20.93394
H         87.29102       38.19740       17.96133
H         86.91017       40.62363       17.51993
H         88.41743       40.30131       18.41644
H         87.13475       40.87763       20.59765
H         85.80326       41.48464       19.54587
H         87.55593       43.07516       18.48405
H         88.78604       42.33217       19.57702
H         87.42731       43.08731       21.58147
H         86.31771       43.95582       20.45390
H         88.01464       45.39456       21.35084
H         89.25917       44.38928       20.78639
H         88.26436       45.22307       19.67364
N         84.75390       37.94652       19.86966
C         83.30523       37.76970       19.92511
C         82.75817       38.58840       21.07269
O         83.19353       38.40700       22.20278
C         82.87495       36.29182       20.09646
C         83.23348       35.41560       18.88298
C         82.43234       34.12897       18.84210
O         82.54664       33.18587       19.79590
O         81.65944       33.93519       17.91749
H         85.27885       37.59526       20.68036
H         82.82675       38.12986       18.98890
H         81.76531       36.30233       20.18162
H         83.27981       35.86203       21.03683
H         84.32511       35.20720       18.86631
H         82.97486       35.98066       17.96232
N         81.77869       39.50706       20.84405
C         81.20221       40.34110       21.87675
H         80.11913       40.11525       21.96734
H         81.68191       40.18484       22.86557
H         81.32417       41.40658       21.59092
H         81.40402       39.61787       19.88956
Ca        84.00003       33.46723       21.45175
O         85.79421       30.88620       21.14525
H         86.13908       30.70166       22.05498
H         85.50135       30.00343       20.80544
O         84.01096       29.35735       23.55959
H         84.31722       28.81875       22.78726
H         84.21079       28.79342       24.34848
O         82.30144       34.51880       24.09638
H         83.24324       34.69876       23.85310
H         82.34625       34.18287       25.02666
O         80.28360       32.99136       21.95853
H         80.19606       33.55614       21.15001
H         79.39274       32.57255       22.06467

Ca 1.0



