%chk=apoCaM-CA-Ng.loop3.water5.frame260.chk
%nprocshared=20
%mem=10GB
%nosave
#b3lyp/svp scf=(tight,noincore,xqc) Test 
#IOP(5/87=12) Density=Current Pop=(MK,readradii) iop(6/33=2) iop(6/42=6)

apoCaM-CA-Ng.loop3.water5.frame260 

   0  1 
C         44.20771       58.14495      112.71328
C         45.68883       57.96628      112.55658
O         46.25901       58.58388      111.66971
H         43.69734       57.84506      111.77382
H         43.81037       57.52746      113.54572
H         43.98272       59.21162      112.92372
N         46.38082       57.12769      113.38467
C         47.82238       56.89949      113.30690
C         48.24655       56.19424      112.02373
O         49.44507       56.06144      111.81174
C         48.61065       58.20549      113.56154
C         48.27482       58.77585      114.91309
O         47.80579       59.89825      115.00964
O         48.49480       58.04878      116.02631
H         45.86598       56.62691      114.12447
H         48.11443       56.20060      114.12240
H         48.41182       58.95607      112.76904
H         49.70123       57.99070      113.55132
N         47.34072       55.63959      111.16173
C         47.74786       54.81608      110.02702
C         47.90732       55.62212      108.75662
O         48.38701       55.06341      107.78026
C         46.73279       53.67334      109.79207
C         46.53301       52.74690      111.00527
C         47.82899       52.03835      111.42063
C         47.58695       51.05095      112.56572
N         48.83666       50.39528      112.94986
H         46.33465       55.69427      111.37607
H         48.74481       54.37274      110.23132
H         47.06442       53.05466      108.92932
H         45.74577       54.11684      109.52924
H         45.77737       51.98161      110.72143
H         46.12822       53.32208      111.86607
H         48.57401       52.78624      111.76301
H         48.24045       51.48740      110.54695
H         46.85102       50.28128      112.24304
H         47.17028       51.59203      113.44450
H         49.52653       51.10687      113.28502
H         48.64651       49.71748      113.72230
H         49.23624       49.87695      112.13371
N         47.50585       56.92142      108.67500
C         47.62579       57.71293      107.45982
C         48.39293       58.99326      107.75759
O         48.57918       59.32697      108.92063
C         46.19593       57.94146      106.93630
C         46.10846       58.73682      105.67582
O         45.36547       59.85795      105.65399
O         46.66203       58.35072      104.65878
H         47.05035       57.36538      109.48423
H         48.19937       57.15372      106.68855
H         45.58784       58.43240      107.72304
H         45.73717       56.94822      106.73929
N         48.93809       59.73131      106.74829
C         49.72238       60.92710      107.01081
C         48.88813       62.03130      107.61874
O         49.45564       62.86515      108.31026
H         48.84271       59.41088      105.77415
H         50.20623       61.30411      106.08687
H         50.55118       60.66189      107.70405
N         47.54837       62.13787      107.36561
C         46.70654       63.16496      107.97484
C         45.38295       62.61384      108.52331
O         44.58821       63.41154      109.00138
C         46.49072       64.33662      106.99729
C         45.60476       64.01881      105.82484
N         44.44971       64.69956      105.63765
O         45.93565       63.15743      105.02893
H         47.12281       61.49443      106.68369
H         47.24697       63.61945      108.83437
H         47.47894       64.68874      106.62668
H         46.04267       65.17699      107.57049
H         44.15649       65.43593      106.29663
H         43.84566       64.49615      104.82923
N         45.08334       61.27757      108.52912
C         43.87780       60.73761      109.14684
C         42.68923       60.69423      108.20173
O         42.31315       61.72550      107.66409
H         45.79551       60.60404      108.22662
H         43.62270       61.33093      110.05124
H         44.09393       59.71044      109.51259
N         41.99746       59.52609      108.02342
C         40.76812       59.42045      107.23029
C         41.05336       59.27842      105.74556
O         42.19415       59.06812      105.36036
C         39.97013       58.16553      107.66113
C         39.45620       58.24808      109.07547
C         38.44604       59.16787      109.40341
C         39.95011       57.38700      110.06903
C         37.93198       59.21889      110.70217
C         39.44259       57.44760      111.37058
C         38.42911       58.35744      111.69083
O         37.93775       58.39041      112.94596
H         42.30036       58.70171      108.56484
H         40.14492       60.32656      107.39884
H         40.63043       57.27793      107.53483
H         39.08412       58.00630      107.01004
H         38.04227       59.83104      108.64818
H         40.72756       56.66948      109.83826
H         37.14337       59.92299      110.93645
H         39.83201       56.78025      112.12900
H         37.22563       58.99306      113.20403
N         40.01852       59.35516      104.85527
C         40.14642       59.11838      103.42136
C         39.97682       60.43329      102.68393
O         40.88428       60.81935      101.96450
C         39.09921       58.05809      102.94975
C         39.15343       56.73793      103.76441
C         39.22222       57.76476      101.44066
C         40.46572       55.95774      103.65444
H         39.08161       59.59311      105.21638
H         41.15958       58.73166      103.18327
H         38.08299       58.47865      103.12096
H         38.32731       56.07407      103.42551
H         38.96801       56.96075      104.83521
H         38.43993       57.04031      101.12638
H         39.08462       58.68359      100.84093
H         40.21966       57.35253      101.18720
H         40.39580       55.04109      104.27718
H         40.65593       55.63942      102.60942
H         41.31997       56.56100      104.02147
N         38.84893       61.18548      102.82091
C         38.66055       62.45636      102.12620
C         38.61355       62.27385      100.62044
O         39.08615       63.15129       99.91155
C         37.36634       63.14790      102.58344
O         37.40355       63.40117      103.96289
H         38.10606       60.85171      103.45367
H         39.49852       63.14357      102.38373
H         36.48531       62.50903      102.36130
H         37.21967       64.10467      102.02841
H         37.92774       64.23612      104.08639
N         38.03482       61.16712      100.06454
C         37.85192       60.94835       98.63139
C         39.14044       60.90270       97.80567
O         39.01703       60.77609       96.59430
C         36.88869       62.01001       98.07493
H         37.64874       60.44832      100.69358
H         37.34642       59.96609       98.49485
H         35.93731       61.98989       98.64901
H         37.31972       63.02991       98.13681
H         36.64742       61.79808       97.01146
N         40.39341       61.00286       98.34809
C         41.60432       61.08678       97.53096
C         42.58503       59.96560       97.82756
O         42.34603       59.16773       98.72417
C         42.25978       62.44905       97.78286
H         40.50925       61.06585       99.36775
H         41.35462       61.02254       96.45039
H         41.54509       63.26092       97.53070
H         42.53945       62.55299       98.85066
H         43.17008       62.58401       97.16376
N         43.72390       59.84960       97.07263
C         44.78000       58.85629       97.27701
C         44.32191       57.41914       97.06259
O         45.12692       56.52266       97.28036
C         45.43464       59.03729       98.66100
C         46.04874       60.43674       98.80622
C         46.58106       60.61887      100.18683
O         45.72818       60.50557      101.21542
O         47.75375       60.89431      100.38391
H         43.87443       60.52797       96.31077
H         45.58260       59.03227       96.52552
H         46.25013       58.29174       98.79560
H         44.68272       58.86080       99.45848
H         45.27078       61.21404       98.65030
H         46.85441       60.58327       98.05345
N         43.08006       57.10506       96.59673
C         42.67215       55.73301       96.38936
H         41.64142       55.70223       95.97790
H         43.35777       55.23706       95.66916
H         42.68913       55.18482       97.35522
H         42.40391       57.84180       96.35643
Ca        46.27393       60.98595      103.31616
O         46.02849       63.78378      101.88471
H         46.78497       64.21827      102.35275
H         46.43536       63.38555      101.07506
O         43.12884       61.68976      104.29150
H         43.17193       61.52966      105.26549
H         42.58085       62.50850      104.19946
O         43.83123       58.79660      102.60122
H         43.30550       58.33163      101.90287
H         43.79746       58.19177      103.38386
O         48.91318       61.38475      104.00198
H         48.58881       62.31080      104.13602
H         49.14699       61.32938      103.04304
O         43.41210       61.84707      101.50155
H         43.20342       61.24101      100.74653
H         43.22996       62.75692      101.16043

Ca 1.0



