%chk=apoCaM-CA-Ng.loop3.water3.frame696.chk
%nprocshared=20
%mem=10GB
%nosave
#b3lyp/svp scf=(tight,noincore,xqc) Test 
#IOP(5/87=12) Density=Current Pop=(MK,readradii) iop(6/33=2) iop(6/42=6)

apoCaM-CA-Ng.loop3.water3.frame696 

   0  1 
C        103.19836      101.85037       -9.74166
C        104.61789      102.24735       -9.99028
O        104.98064      103.35310       -9.62178
H        102.51474      102.53370      -10.28564
H        103.00993      100.80606      -10.06415
H        102.99800      101.92452       -8.65123
N        105.48136      101.40041      -10.61923
C        106.89723      101.68643      -10.77716
C        107.19049      102.06690      -12.22487
O        106.87901      101.31298      -13.13558
C        107.71037      100.48153      -10.26265
C        109.17087      100.77570      -10.11049
O        109.93749       99.90256       -9.73724
O        109.64703      101.99350      -10.39740
H        105.12767      100.50278      -10.98396
H        107.16996      102.54289      -10.13052
H        107.56504       99.62063      -10.94801
H        107.34379      100.19462       -9.25807
N        107.76497      103.27516      -12.48589
C        108.00030      103.84534      -13.81470
C        108.90007      102.94606      -14.65335
O        108.49470      102.58756      -15.75087
C        108.58002      105.27804      -13.65591
C        107.54098      106.21422      -12.98555
C        108.13032      107.54598      -12.50093
C        107.02911      108.39410      -11.83368
N        107.57306      109.60336      -11.21711
H        108.04084      103.83914      -11.66864
H        107.02952      103.95106      -14.35206
H        108.85319      105.71244      -14.64329
H        109.50083      105.21477      -13.04092
H        107.11045      105.73344      -12.08515
H        106.70580      106.39317      -13.69797
H        108.58242      108.11046      -13.34459
H        108.92174      107.32446      -11.75092
H        106.51918      107.79874      -11.04397
H        106.26863      108.67359      -12.59613
H        108.07326      110.18545      -11.92558
H        106.78709      110.15864      -10.80666
H        108.22998      109.34638      -10.44699
N        110.10191      102.49843      -14.18300
C        110.96343      101.56837      -14.92544
C        111.00503      100.17758      -14.29811
O        111.67639       99.31723      -14.85317
C        112.39993      102.12439      -15.12228
C        113.20301      102.38449      -13.87138
O        112.64843      102.31230      -12.65892
O        114.37342      102.71183      -13.96042
H        110.37429      102.78561      -13.23404
H        110.55409      101.40912      -15.94834
H        112.35803      103.06720      -15.70596
H        112.96498      101.38055      -15.72697
N        110.28204       99.85100      -13.18895
C        110.25468       98.50061      -12.65016
C        111.54880       98.04619      -12.00086
O        111.58716       96.88933      -11.60614
H        109.66690      100.54963      -12.75471
H        109.97790       97.79836      -13.46680
H        109.46185       98.42530      -11.87748
N        112.62705       98.86975      -11.81264
C        113.85691       98.41792      -11.16024
C        114.10360       99.14996       -9.85283
O        113.52345      100.19554       -9.60471
C        115.08560       98.63961      -12.07222
C        115.09395       97.83973      -13.35030
N        116.15671       97.93392      -14.18376
O        114.16639       97.09674      -13.63437
H        112.57592       99.85099      -12.11272
H        113.78650       97.33727      -10.90970
H        116.00256       98.35293      -11.51305
H        115.16167       99.72105      -12.32678
H        116.95233       98.54808      -13.95224
H        116.19358       97.38557      -15.05545
N        114.98635       98.61919       -8.96038
C        115.40815       99.25665       -7.72517
C        114.26398       99.64163       -6.81117
O        113.44150       98.80202       -6.47475
H        115.41250       97.70519       -9.17959
H        116.01311      100.15401       -7.97616
H        116.07455       98.55264       -7.18076
N        114.20201      100.91550       -6.32615
C        113.17891      101.40572       -5.40310
C        111.81339      101.52670       -6.07859
O        111.68139      101.20590       -7.25050
C        113.58909      102.81372       -4.88489
C        114.85529      102.84100       -4.06362
C        114.93736      102.13277       -2.85162
C        115.94599      103.62600       -4.47281
C        116.08771      102.21737       -2.06034
C        117.09440      103.70915       -3.68014
C        117.16844      103.01165       -2.47030
O        118.27570      103.11991       -1.70836
H        114.95894      101.56372       -6.59427
H        113.09716      100.71795       -4.53355
H        112.81172      103.23775       -4.22111
H        113.67816      103.49691       -5.75589
H        114.10595      101.53013       -2.50834
H        115.90268      104.18842       -5.39705
H        116.13306      101.67566       -1.12369
H        117.92277      104.32792       -4.00125
H        118.35947      102.67212       -0.85441
N        110.76474      102.05497       -5.37301
C        109.44116      102.40161       -5.88726
C        109.52541      103.42319       -7.01090
O        110.14695      103.14855       -8.02413
C        108.59199      101.17730       -6.33454
C        107.14514      101.60061       -6.75045
C        108.53952      100.09631       -5.24614
C        106.30677      102.28965       -5.66038
H        110.91657      102.28043       -4.37983
H        108.89523      102.85852       -5.03634
H        109.06863      100.71181       -7.22311
H        106.58643      100.70096       -7.08346
H        107.19760      102.28870       -7.61902
H        108.10791      100.49064       -4.30395
H        107.92459       99.23903       -5.59605
H        109.55962       99.71485       -5.03371
H        105.30411      102.53652       -6.06821
H        106.16829      101.63150       -4.77993
H        106.75567      103.24425       -5.32680
N        108.82166      104.58701       -6.93863
C        108.68823      105.49543       -8.07115
C        109.05141      106.92663       -7.74494
O        108.96803      107.74571       -8.64935
C        107.24304      105.42298       -8.57364
O        106.34897      105.81642       -7.56680
H        108.26655      104.78188       -6.09301
H        109.34127      105.17717       -8.91282
H        107.06059      104.36982       -8.85545
H        107.10407      106.06143       -9.47102
H        105.46800      105.42604       -7.80483
N        109.44405      107.33053       -6.50140
C        109.73121      108.73303       -6.21986
C        110.91346      109.22370       -7.04422
O        111.70061      108.39353       -7.47886
C        110.02934      108.92663       -4.73277
H        109.50892      106.64589       -5.73459
H        108.81415      109.29934       -6.48913
H        110.25419      109.98705       -4.51744
H        109.15247      108.61085       -4.12746
H        110.91057      108.32094       -4.43338
N        111.11194      110.53535       -7.37157
C        110.24070      111.65568       -7.02558
C        111.04339      112.79424       -6.40967
O        112.14701      113.03984       -6.87695
C        109.58664      112.16867       -8.31145
H        111.91903      110.74539       -7.98093
H        109.41820      111.35476       -6.35731
H        110.35537      112.50422       -9.04067
H        108.98420      111.35956       -8.77693
H        108.91046      113.02185       -8.08835
N        110.54300      113.63793       -5.45781
C        109.21808      113.53146       -4.85754
C        109.20468      112.43502       -3.81847
O        108.36814      111.54721       -3.90524
C        108.77937      114.86089       -4.20672
C        108.64198      115.98517       -5.24841
C        108.02391      117.21250       -4.64361
O        106.89594      117.16436       -4.17774
O        108.69639      118.37857       -4.63728
H        111.13223      114.44131       -5.18641
H        108.45742      113.32756       -5.64384
H        109.48370      115.17268       -3.40398
H        107.77998      114.69004       -3.74717
H        107.98677      115.65140       -6.08210
H        109.64035      116.23529       -5.66717
N        110.11019      112.44324       -2.79862
C        110.16362      111.43064       -1.76398
H        110.04276      111.91355       -0.77184
H        109.37093      110.66247       -1.88066
H        111.15091      110.92369       -1.79800
H        110.81102      113.19850       -2.75474
Ca       111.82777      102.21970      -10.60877
O        111.20186      105.04038      -10.95103
H        111.61928      105.00387      -11.84829
H        111.21637      105.99885      -10.70564
O        114.95007      102.83634      -10.52649
H        115.61471      103.44798      -10.12243
H        114.50875      103.38471      -11.22168
O        113.03893      104.11124       -8.26880
H        112.59924      104.77582       -7.68096
H        113.95908      104.45623       -8.38725

Ca 1.0



