%chk=apoCaM-CA-Ng.loop2.water6.frame479.chk
%nprocshared=20
%mem=10GB
%nosave
#b3lyp/svp scf=(tight,noincore,xqc) Test 
#IOP(5/87=12) Density=Current Pop=(MK,readradii) iop(6/33=2) iop(6/42=6)

apoCaM-CA-Ng.loop2.water6.frame479 

   -2  1 
C         51.34022       70.49756       80.50583
C         52.42089       70.53748       79.46462
O         53.50092       70.01242       79.69306
H         50.45448       69.96413       80.09950
H         51.68371       69.97260       81.42216
H         51.03761       71.52861       80.77185
N         52.17624       71.13552       78.26813
C         53.13412       71.15839       77.16890
C         54.37599       71.96418       77.52463
O         54.25246       73.15133       77.79345
C         52.45716       71.76681       75.91648
C         53.29767       71.71334       74.66550
O         54.52481       71.15681       74.66480
O         52.85011       72.16959       73.62598
H         51.24152       71.55005       78.12252
H         53.40445       70.10672       76.92643
H         52.18413       72.82589       76.12323
H         51.52040       71.20515       75.70869
N         55.61797       71.39507       77.47330
C         56.84479       72.17731       77.62867
C         56.98007       72.80304       79.01012
O         56.21094       72.48465       79.90324
C         58.07293       71.32597       77.28602
H         55.69075       70.39641       77.22375
H         56.79689       73.00497       76.88562
H         59.00126       71.93324       77.33035
H         58.16376       70.46906       77.98623
H         57.97391       70.93129       76.25074
N         57.90640       73.78380       79.21641
C         57.92945       74.62268       80.41749
C         58.71298       74.02023       81.58086
O         58.80563       74.67506       82.61114
C         58.56091       75.99489       80.08099
C         57.89208       76.67254       78.91503
O         56.58339       76.98017       78.96206
O         58.53930       76.95172       77.91828
H         58.48239       74.06564       78.40765
H         56.88333       74.81570       80.73906
H         59.63967       75.85371       79.84660
H         58.48134       76.66737       80.96301
N         59.35685       72.82353       81.48454
C         60.27326       72.32626       82.50135
C         59.68040       71.95709       83.84862
O         60.45906       71.49903       84.67417
H         59.28982       72.27832       80.61357
H         61.07175       73.08461       82.66300
H         60.76156       71.40940       82.10668
N         58.36305       72.11205       84.18036
C         57.86242       71.69786       85.48876
C         57.65225       70.20251       85.45650
O         56.75678       69.74792       84.75591
C         56.58114       72.48015       85.86237
C         56.07402       72.20619       87.26330
N         55.55803       71.00362       87.60864
O         56.10500       73.10241       88.09362
H         57.70404       72.51426       83.50213
H         58.61945       71.97326       86.25888
H         55.76743       72.29001       85.12953
H         56.84570       73.55836       85.80690
H         55.47818       70.24146       86.92495
H         55.20587       70.83977       88.56332
N         58.48624       69.36475       86.13348
C         58.34231       67.92242       86.05653
C         57.27331       67.41102       86.99070
O         56.77844       68.15781       87.82380
H         59.29662       69.75381       86.63897
H         59.29247       67.43420       86.36332
H         58.14476       67.62532       85.00310
N         56.90796       66.09980       86.93343
C         56.01388       65.47204       87.90680
C         54.60545       66.07193       87.97547
O         53.90356       65.73402       88.91575
C         55.93146       63.93538       87.68906
C         55.24957       63.54328       86.36528
O         57.20777       63.34926       87.79895
H         57.35231       65.52121       86.20578
H         56.47697       65.63698       88.90598
H         55.31162       63.50087       88.50318
H         57.67514       63.42982       86.92723
H         55.79539       63.94622       85.48691
H         55.20314       62.43787       86.27735
H         54.21425       63.92986       86.34537
N         54.13431       66.97582       87.06340
C         52.83225       67.64475       87.18884
C         52.85357       68.98103       86.46830
O         53.43641       69.07415       85.39684
C         51.58380       66.82043       86.72475
C         51.48312       66.56095       85.19588
C         51.36378       65.53284       87.53020
C         52.52958       65.61731       84.60784
H         54.76591       67.27474       86.30993
H         52.68494       67.88848       88.26523
H         50.70777       67.46685       86.96383
H         51.52803       67.52619       84.64988
H         50.48298       66.12442       84.98175
H         50.39959       65.06380       87.24047
H         52.16993       64.79524       87.35498
H         51.31084       65.76655       88.61490
H         52.34859       65.51204       83.51756
H         53.55481       66.00910       84.74444
H         52.44026       64.60989       85.05880
N         52.23877       70.07136       87.01627
C         52.27156       71.38177       86.37207
C         51.77523       72.46342       87.33404
O         50.98934       73.30907       86.93738
C         51.42482       71.32487       85.06808
C         51.58179       72.50136       84.14912
O         50.92203       72.54343       83.12427
O         52.47488       73.47697       84.39166
H         51.76998       69.96267       87.92814
H         53.33548       71.60802       86.14927
H         50.35422       71.20642       85.34824
H         51.69961       70.44157       84.45802
N         52.17363       72.46361       88.64045
C         51.70701       73.42128       89.64456
C         50.17830       73.50777       89.67570
O         49.54170       72.47845       89.85835
C         52.17273       72.96994       91.05495
C         51.58441       73.85075       92.13767
C         52.08351       75.14090       92.37604
C         50.48046       73.39320       92.88203
C         51.48476       75.95849       93.34243
C         49.87664       74.21781       93.83284
C         50.37861       75.49956       94.06445
H         52.80999       71.71339       88.95098
H         52.15015       74.41241       89.42503
H         53.28010       72.92715       91.14148
H         51.80030       71.93092       91.20094
H         52.92950       75.51313       91.81247
H         50.06526       72.40880       92.70352
H         51.87053       76.95261       93.52543
H         49.01361       73.86441       94.38279
H         49.90671       76.13728       94.80065
N         49.51568       74.70667       89.59673
C         48.08311       74.84028       89.81638
C         47.26406       74.45556       88.59582
O         46.04470       74.44345       88.69247
C         47.93135       76.33145       90.14943
C         48.97357       76.95830       89.24260
C         50.14819       76.00065       89.41752
H         47.75166       74.23869       90.69198
H         46.90285       76.74143       90.05762
H         48.28125       76.49651       91.19501
H         48.59998       76.87340       88.19707
H         49.21943       78.02316       89.44088
H         50.79755       76.04907       88.51646
H         50.73066       76.24267       90.32954
N         47.85749       74.19548       87.39892
C         47.10797       73.92699       86.18080
C         46.59649       72.49813       86.12401
O         45.78601       72.21499       85.25244
C         48.00105       74.18122       84.95005
C         48.48396       75.64015       84.88976
C         49.41255       75.85050       83.73699
O         49.04300       75.62776       82.59570
O         50.66008       76.30151       83.96199
H         48.87373       74.29415       87.32792
H         46.24739       74.63257       86.13334
H         47.43040       73.95904       84.02144
H         48.87762       73.49717       84.99529
H         49.02990       75.91586       85.81624
H         47.61085       76.31842       84.78779
N         47.06476       71.52994       86.96526
C         46.64566       70.14428       86.89155
H         45.87073       69.97343       86.11476
H         47.52457       69.51006       86.64803
H         46.23469       69.82989       87.87249
H         47.78153       71.75813       87.66854
Ca        52.78261       74.97997       82.73614
O         51.61880       74.09670       79.98704
H         52.38086       73.48097       79.84873
H         50.88224       73.70838       79.45244
O         54.07915       72.19267       82.10000
H         54.24709       72.90128       81.42976
H         54.76356       71.50192       81.91584
O         54.15697       75.78434       80.10612
H         54.82602       76.11907       80.75350
H         54.52825       74.92286       79.79195
O         54.12846       77.61658       83.18745
H         55.03574       77.49704       82.80995
H         53.72636       78.33629       82.64010
O         55.50105       74.88819       83.51431
H         56.13227       74.19993       83.19182
H         55.84169       75.15394       84.40405
O         51.39961       76.95365       80.72399
H         51.69469       77.45983       81.52128
H         50.41334       76.92900       80.79761

Ca 1.0



