%chk=apoCaM-CA-Ng.loop1.water3.frame709.chk
%nprocshared=20
%mem=10GB
%nosave
#b3lyp/svp scf=(tight,noincore,xqc) Test 
#IOP(5/87=12) Density=Current Pop=(MK,readradii) iop(6/33=2) iop(6/42=6)

apoCaM-CA-Ng.loop1.water3.frame709 

   0  1 
C         87.03218       21.64582      -10.06174
C         88.38326       21.91218      -10.65472
O         88.43887       22.37661      -11.78472
H         86.48131       20.93040      -10.70792
H         87.11251       21.21540       -9.04220
H         86.46029       22.59587      -10.00379
N         89.52120       21.65051       -9.94671
C         90.86048       21.88684      -10.48179
C         91.71621       20.59286      -10.51717
O         90.93009       19.44755      -10.34524
C         91.57087       23.00591       -9.68993
C         91.79634       22.73235       -8.22105
O         91.46895       21.67504       -7.70668
O         92.37248       23.68145       -7.45968
H         89.42800       21.27225       -8.99315
H         90.77331       22.25738      -11.52748
H         90.95304       23.92640       -9.77194
H         92.55744       23.21372      -10.15699
N         92.47801       20.53424      -11.77705
C         93.23926       19.29906      -12.05280
C         94.53680       19.23604      -11.25354
O         95.34470       20.14984      -11.33820
C         93.51213       19.25170      -13.57028
C         94.24616       17.98262      -14.03979
C         94.33431       17.96625      -15.57768
C         95.09672       16.76074      -16.15313
N         96.53433       16.83836      -15.88674
H         93.09368       21.37568      -11.87159
H         92.60675       18.41090      -11.83012
H         94.10224       20.14366      -13.87521
H         92.52586       19.29571      -14.08443
H         93.68397       17.08258      -13.70675
H         95.25792       17.96371      -13.58547
H         94.81213       18.89842      -15.94920
H         93.29503       17.93003      -15.97209
H         94.95371       16.76070      -17.25646
H         94.67489       15.80957      -15.75901
H         97.01098       16.02899      -16.34502
H         96.92660       17.71996      -16.28866
H         96.73054       16.80999      -14.86505
N         94.80993       18.14074      -10.48929
C         96.03971       17.96547       -9.69917
C         96.13638       16.54310       -9.13062
O         95.13771       15.83646       -9.13239
C         96.13717       19.02988       -8.56937
C         94.79240       19.32822       -7.96886
O         94.32637       20.45022       -8.09303
O         94.00388       18.35148       -7.48975
H         94.10794       17.38659      -10.50133
H         96.89426       18.08303      -10.38539
H         96.50864       19.97778       -9.01503
H         96.85480       18.74221       -7.78048
N         97.29139       15.99763       -8.63495
C         98.62110       16.59658       -8.57524
C         99.28013       16.81289       -9.92140
O         98.65937       16.63286      -10.95471
H         97.22597       15.04018       -8.25481
H         99.27782       15.87787       -8.03676
H         98.62394       17.53184       -7.98756
N        100.59386       17.17449       -9.95884
C        101.36000       17.38518      -11.18599
C        101.37968       16.12838      -12.04392
O        101.78550       15.08105      -11.55802
C        102.81035       17.78453      -10.82100
C        103.65441       18.07823      -12.03131
O        104.76313       17.35219      -12.27246
O        103.34855       18.98298      -12.79138
H        101.07744       17.29547       -9.05460
H        100.90508       18.22755      -11.75325
H        103.28359       16.96336      -10.23730
H        102.79499       18.69396      -10.18208
N        101.00397       16.17719      -13.35573
C        101.09423       15.02308      -14.23862
C        100.07593       13.93551      -13.94811
O        100.17183       12.88502      -14.56605
H        100.71701       17.07985      -13.76459
H        102.12452       14.61144      -14.17518
H        100.92908       15.34750      -15.28989
N         99.03176       14.13607      -13.09412
C         97.96940       13.16134      -12.85690
C         97.73950       12.94081      -11.37043
O         98.40969       13.55211      -10.54858
C         96.65817       13.66708      -13.52071
C         96.08125       14.92222      -12.84708
O         96.88648       13.93264      -14.87858
H         98.93390       15.05428      -12.65609
H         98.22384       12.18571      -13.32581
H         95.86255       12.89315      -13.44273
H         96.92800       13.05546      -15.34193
H         95.82344       14.72278      -11.78606
H         96.79334       15.76884      -12.87441
H         95.14823       15.21984      -13.36392
N         96.72041       12.12976      -10.96280
C         96.29439       12.02897       -9.57015
C         97.30536       11.22562       -8.75497
O         97.21046       11.22277       -7.53674
C         94.83287       11.45821       -9.49084
C         93.86383       12.33954      -10.34298
C         94.31773       11.38390       -8.03669
C         92.44498       11.77774      -10.45870
H         96.18288       11.62881      -11.68302
H         96.25171       13.06147       -9.15912
H         94.84120       10.42917       -9.91409
H         94.22436       12.42046      -11.38643
H         93.81985       13.37046       -9.92957
H         93.29758       10.95835       -7.98909
H         94.92766       10.70294       -7.41617
H         94.30756       12.39558       -7.57619
H         91.85025       12.42396      -11.13856
H         92.47383       10.75188      -10.88430
H         91.92381       11.76182       -9.48223
N         98.31752       10.53612       -9.35797
C         99.30328        9.75344       -8.62766
C         99.25838        8.30644       -9.08747
O         98.46987        7.95855       -9.95635
C        100.71600       10.37950       -8.79786
C        101.22538       10.40082      -10.24714
O        100.74953       11.67134       -8.24401
H         98.40467       10.54355      -10.38265
H         99.08073        9.75130       -7.53795
H        101.44236        9.77432       -8.21769
H        100.18233       12.26055       -8.80522
H        102.25579       10.81337      -10.26874
H        101.25349        9.37242      -10.66515
H        100.58409       11.03753      -10.89060
N        100.10717        7.40669       -8.52717
C        100.16803        6.00124       -8.88669
C         99.90399        5.18614       -7.63365
O         98.95537        4.41435       -7.60613
C        101.54615        5.71309       -9.55116
C        101.73260        4.24131       -9.92639
O        102.60402        6.11474       -8.71765
H        100.75903        7.73779       -7.80298
H         99.38859        5.74531       -9.64036
H        101.57193        6.31874      -10.48931
H        103.35877        6.38424       -9.30374
H        100.93128        3.91177      -10.61943
H        102.71350        4.11094      -10.43314
H        101.72341        3.60132       -9.01882
N        100.72943        5.31039       -6.55974
C        100.62855        4.53834       -5.33532
C        100.72990        5.46791       -4.13763
O        101.55855        6.36947       -4.15713
C        101.78763        3.53735       -5.35976
C        101.80739        2.60807       -4.14463
C        102.88577        1.54123       -4.34016
C        102.96883        0.60251       -3.13615
N        103.95691       -0.44802       -3.37545
H        101.53801        5.94182       -6.63157
H         99.68652        3.94560       -5.29401
H        102.75981        4.07369       -5.43591
H        101.66059        2.91641       -6.27578
H        100.81923        2.10767       -4.03912
H        102.01220        3.19863       -3.22507
H        103.87369        2.02964       -4.49095
H        102.63892        0.94773       -5.24875
H        101.97534        0.13541       -2.95486
H        103.25571        1.18724       -2.23378
H        104.89673       -0.02603       -3.55667
H        104.01481       -1.06313       -2.53277
H        103.66782       -1.02659       -4.19807
N         99.97722        5.26302       -3.01960
C        100.09929        6.12340       -1.84764
C         99.56081        7.52088       -2.14194
O        100.33672        8.45707       -2.01283
C         99.47178        5.49782       -0.58191
C        100.22315        4.22763       -0.14687
C         99.66649        3.68532        1.13816
O        100.45158        3.59884        2.22944
O         98.50476        3.31585        1.20012
H         99.34703        4.44688       -2.98564
H        101.18117        6.22676       -1.59610
H         98.40631        5.25152       -0.72538
H         99.55576        6.23745        0.24605
H        101.29727        4.47255        0.00821
H        100.15292        3.44449       -0.93104
N         98.28784        7.79269       -2.55907
C         97.25500        6.80888       -2.80476
H         96.34052        7.31726       -3.17734
H         97.57973        6.08597       -3.57971
H         96.96846        6.28990       -1.87419
H         98.04055        8.77822       -2.74070
Ca        92.06173       18.50180       -8.61109
O         91.62952       17.18129       -5.39838
H         90.94891       16.89619       -4.73800
H         92.49431       17.05934       -4.93163
O         91.11587       15.69907       -8.89965
H         90.55252       16.36760       -9.36566
H         92.03297       15.86935       -9.23310
O         92.26649       20.58984       -4.99146
H         92.57357       21.52425       -4.87582
H         92.83128       20.06370       -4.37152

Ca 1.0



