%chk=apoCaM-CA-Ng.loop2.water2.frame859.chk
%nprocshared=20
%mem=10GB
%nosave
#b3lyp/svp scf=(tight,noincore,xqc) Test 
#IOP(5/87=12) Density=Current Pop=(MK,readradii) iop(6/33=2) iop(6/42=6)

apoCaM-CA-Ng.loop2.water2.frame859 

   -2  1 
C         68.69614       54.14086       74.28056
C         67.68142       54.23834       73.18290
O         67.11304       53.22450       72.80155
H         69.67609       54.51785       73.92240
H         68.36016       54.75315       75.14409
H         68.81322       53.08816       74.61606
N         67.39421       55.44898       72.62770
C         66.37509       55.62120       71.59966
C         65.03548       55.21825       72.18011
O         64.40425       54.30944       71.65944
C         66.36275       57.08527       71.10076
C         65.39416       57.30660       69.96897
O         65.80260       57.67436       68.87894
O         64.07209       57.12740       70.15418
H         67.91220       56.27579       72.96489
H         66.62915       54.97372       70.72947
H         67.38638       57.33668       70.74476
H         66.11493       57.78372       71.92807
N         64.56171       55.85480       73.28788
C         63.31802       55.50107       73.95683
C         63.05346       56.49689       75.08544
O         63.90815       56.59796       75.95587
C         63.39349       54.08801       74.55688
H         65.12057       56.63320       73.67015
H         62.51857       55.47995       73.20340
H         64.21671       54.01583       75.29924
H         62.43331       53.84551       75.06242
H         63.55923       53.32154       73.77366
N         61.92252       57.25538       75.20813
C         60.76835       57.24262       74.31338
C         60.30913       58.65234       73.97624
O         60.84571       59.60870       74.51727
C         59.66407       56.34723       74.91257
C         59.21034       56.73970       76.29264
O         58.03488       56.98194       76.49479
O         60.07202       56.74423       77.32864
H         61.85360       57.84526       76.05257
H         61.02424       56.81118       73.33583
H         60.06237       55.31183       74.98335
H         58.79317       56.32399       74.22300
N         59.36678       58.84810       73.00678
C         58.95670       60.16443       72.53896
C         57.45338       60.26728       72.37523
O         57.01920       60.39934       71.23953
H         58.99464       58.02608       72.50667
H         59.40689       60.29814       71.53036
H         59.34037       60.98653       73.17694
N         56.56038       60.21550       73.40460
C         56.90263       60.07583       74.81171
C         57.22183       61.44489       75.39687
O         56.34035       62.29151       75.45319
C         55.71416       59.38926       75.52309
C         55.93306       59.01440       76.95877
N         54.96828       58.33144       77.61573
O         56.97711       59.28940       77.52452
H         55.55829       60.25684       73.15534
H         57.76668       59.38817       74.90792
H         55.50791       58.43983       74.98095
H         54.80945       60.03155       75.45643
H         54.08712       58.08371       77.14365
H         55.10086       58.02687       78.58686
N         58.48829       61.74692       75.80009
C         58.89245       63.06233       76.27263
C         58.50233       63.37111       77.70501
O         58.82224       64.46547       78.14705
H         59.22568       61.04442       75.67221
H         58.50164       63.84036       75.57985
H         60.00200       63.12162       76.23986
N         57.84529       62.47741       78.50142
C         57.49836       62.74661       79.89435
C         58.13396       61.66550       80.80971
O         57.29179       60.56298       80.83503
C         55.94826       62.79750       80.04306
C         55.34731       64.00899       79.34124
O         55.36562       61.63854       79.49165
H         57.57675       61.56597       78.11550
H         57.91781       63.72490       80.21664
H         55.69864       62.89062       81.12617
H         54.72787       61.27076       80.15683
H         54.24537       64.00241       79.48386
H         55.75672       64.94233       79.78000
H         55.56556       63.98163       78.25312
N         58.34667       62.15831       82.18206
C         58.85499       61.12600       83.11542
C         57.71316       60.21129       83.56021
O         56.76493       60.70419       84.15704
C         59.51210       61.82541       84.34464
C         60.03475       60.83565       85.42396
C         60.62924       62.78946       83.90109
C         61.15674       59.89920       84.96603
H         57.48990       62.61739       82.56886
H         59.64174       60.53177       82.59937
H         58.73162       62.44570       84.84036
H         59.19217       60.21446       85.79574
H         60.41070       61.42347       86.29040
H         61.43660       62.25283       83.36154
H         60.22689       63.57145       83.22348
H         61.06406       63.30586       84.78349
H         60.81988       59.25220       84.13265
H         62.05405       60.47089       84.65330
H         61.45264       59.24469       85.81340
N         57.73468       58.87219       83.28461
C         56.65668       57.95708       83.65424
C         57.11238       56.86859       84.61677
O         56.26913       56.06688       84.99579
C         56.03369       57.30000       82.40598
C         55.37295       58.29679       81.50405
O         54.16789       58.47638       81.58000
O         56.06575       58.95413       80.55869
H         58.54307       58.48411       82.77957
H         55.84230       58.50680       84.17909
H         55.23154       56.61162       82.75512
H         56.76544       56.68840       81.83715
N         58.38635       56.79913       85.10979
C         58.77309       55.83324       86.13246
C         60.10681       55.15309       85.80089
O         61.10880       55.85331       85.79695
C         58.87199       56.59870       87.46729
C         59.41016       55.76873       88.60591
C         60.59729       56.16723       89.24379
C         58.75112       54.60693       89.04279
C         61.11926       55.41776       90.29811
C         59.28006       53.85657       90.09909
C         60.46255       54.26228       90.72573
H         59.07755       57.51332       84.84361
H         57.97646       55.08190       86.26147
H         57.86513       56.98687       87.73809
H         59.53152       57.48134       87.31229
H         61.12106       57.06011       88.92454
H         57.83397       54.28133       88.56875
H         62.03381       55.73551       90.78156
H         58.77393       52.96058       90.43358
H         60.87100       53.68328       91.54325
N         60.22788       53.79530       85.59048
C         61.50378       53.07642       85.50498
C         62.53519       53.53042       84.48145
O         63.62359       52.97060       84.48591
C         61.08353       51.64526       85.14426
C         59.76830       51.51104       85.86239
C         59.11465       52.85947       85.58138
H         61.96011       53.13145       86.51848
H         60.85202       51.59592       84.05340
H         61.83736       50.86452       85.38214
H         59.15297       50.63080       85.57712
H         59.99668       51.45140       86.95112
H         58.63106       52.89757       84.57969
H         58.37091       53.01203       86.38833
N         62.27374       54.48349       83.54837
C         63.23496       54.86143       82.51069
C         64.51030       55.50984       83.03321
O         65.42516       55.68371       82.23955
C         62.55396       55.81131       81.51344
C         62.21125       57.17041       82.16014
C         61.22490       57.88516       81.31330
O         61.46397       58.98733       80.84858
O         60.04195       57.29372       81.08784
H         61.32776       54.88608       83.51799
H         63.51058       53.92803       81.97026
H         61.62881       55.29389       81.17258
H         63.18692       55.98500       80.61532
H         63.13426       57.77237       82.31097
H         61.72552       57.03779       83.14815
N         64.62999       55.94561       84.32047
C         65.81447       56.61415       84.82270
H         66.61704       56.69364       84.05898
H         65.54469       57.64142       85.14683
H         66.21413       56.05348       85.69213
H         63.84413       55.83976       84.97639
Ca        58.22383       58.74738       79.94267
O         58.51539       55.35700       79.61922
H         58.54878       54.77307       80.41825
H         57.56545       55.34847       79.34116
O         60.40013       60.25920       78.04264
H         61.34583       60.01063       78.19568
H         60.06687       59.57917       77.40519

Ca 1.0



