%chk=apoCaM-CA-Ng.loop4.water3.frame136.chk
%nprocshared=20
%mem=10GB
%nosave
#b3lyp/svp scf=(tight,noincore,xqc) Test 
#IOP(5/87=12) Density=Current Pop=(MK,readradii) iop(6/33=2) iop(6/42=6)

apoCaM-CA-Ng.loop4.water3.frame136 

   -3  1 
C         48.29975       46.06775        8.31581
C         49.16857       44.99120        8.88877
O         49.54091       44.09759        8.15370
H         47.33100       46.10021        8.85254
H         48.81670       47.04560        8.41266
H         48.10959       45.88050        7.23543
N         49.56596       45.03970       10.19188
C         50.50084       44.10256       10.81070
C         51.85172       44.11798       10.11254
O         52.32335       43.08907        9.67104
C         49.88368       42.71365       11.16548
C         49.00690       41.90748       10.22023
O         49.42521       41.35428        9.06363
O         47.87033       41.64710       10.58420
H         49.24638       45.83628       10.76358
H         50.75544       44.50407       11.81888
H         49.22561       42.92028       12.04096
H         50.69458       42.05676       11.54840
N         52.54314       45.29825       10.06559
C         53.88224       45.56662        9.52428
C         54.98520       44.83991       10.29944
O         55.71480       45.50492       11.02238
C         53.98367       45.37133        7.98488
C         55.35303       45.86040        7.42401
C         52.82504       46.07218        7.25182
C         55.64369       47.36042        7.58196
H         52.07137       46.11721       10.48149
H         54.03819       46.65148        9.71152
H         53.89768       44.28669        7.75812
H         55.39741       45.61667        6.34200
H         56.17785       45.31527        7.92224
H         51.85051       45.64643        7.56605
H         52.80719       47.16028        7.46851
H         52.91814       45.92230        6.15497
H         55.68475       47.66017        8.64851
H         56.63561       47.58846        7.13819
H         54.89004       47.97777        7.05312
N         55.17244       43.49098       10.21079
C         56.13207       42.76551       11.03388
C         57.55568       42.81149       10.48709
O         58.43735       43.15235       11.26265
C         55.69064       41.30111       11.26796
C         54.33215       41.22438       11.90860
O         54.11255       41.80096       13.10567
O         53.42450       40.62876       11.35172
H         54.57257       42.93753        9.59219
H         56.13099       43.20775       12.05777
H         56.41919       40.80758       11.94780
H         55.67358       40.72094       10.33063
N         57.91785       42.43299        9.22192
C         56.99014       42.17420        8.13001
C         57.69403       41.63874        6.89080
O         58.73395       42.18372        6.54892
H         58.92877       42.39747        9.01605
H         56.50978       43.13134        7.86181
H         56.19579       41.50977        8.44408
N         57.19327       40.64186        6.08874
C         55.88946       39.98592        6.20562
C         54.80774       41.06621        6.22625
O         54.09755       41.18453        7.21496
C         55.87269       38.96808        7.37826
C         54.65858       38.07369        7.39625
O         54.56082       37.11862        8.34021
O         53.77522       38.17953        6.56020
H         57.74734       40.39430        5.25349
H         55.74067       39.35235        5.30367
H         55.95457       39.44828        8.36500
H         56.75426       38.30202        7.26337
N         54.67110       41.96856        5.20660
C         55.33011       41.87667        3.91679
C         56.37747       42.93607        3.73104
O         56.59299       43.76455        4.60515
H         54.05290       42.77501        5.33832
H         54.56697       41.94233        3.11187
H         55.83974       40.90541        3.79094
N         57.14400       42.88738        2.60949
C         58.32411       43.72017        2.42682
C         57.98536       45.16434        2.10529
O         58.90093       45.97665        2.14812
C         59.21630       43.15235        1.30033
C         59.68638       41.70984        1.58666
C         60.51022       41.12446        0.46572
N         60.95876       39.85168        0.55921
O         60.76605       41.78164       -0.53333
H         56.93752       42.14610        1.92338
H         58.91216       43.68866        3.37288
H         60.11740       43.79487        1.18434
H         58.64144       43.17190        0.34743
H         58.81393       41.03989        1.72455
H         60.28554       41.69563        2.52282
H         60.74447       39.27882        1.38894
H         61.51288       39.43392       -0.20282
N         56.73510       45.55979        1.71250
C         56.43135       46.94175        1.34239
C         56.13922       47.09723       -0.14489
O         56.01343       48.23454       -0.57375
C         55.25924       47.51924        2.18266
C         55.55666       47.44639        3.68532
C         53.91835       46.83177        1.87690
H         55.98701       44.85617        1.63142
H         57.32092       47.58204        1.53478
H         55.14629       48.59414        1.91551
H         55.65436       46.39127        4.01515
H         56.49779       47.98712        3.91865
H         54.73183       47.91954        4.26045
H         53.11251       47.33282        2.45094
H         53.66214       46.92151        0.79973
H         53.93824       45.75672        2.14923
N         56.00904       46.02789       -0.99063
C         55.76024       46.19103       -2.42073
C         54.42182       45.62060       -2.86557
O         54.11600       45.81575       -4.03606
C         56.89509       45.51408       -3.22017
C         58.24290       46.12863       -2.94382
N         58.49162       47.42013       -3.26379
O         59.12612       45.44734       -2.44463
H         56.09953       45.06831       -0.63144
H         55.72858       47.26784       -2.69135
H         56.70400       45.60025       -4.31229
H         56.91716       44.43148       -2.96198
H         57.76537       48.00495       -3.70223
H         59.41830       47.83456       -3.08571
N         53.56622       44.92780       -2.04877
C         52.31533       44.34762       -2.55572
C         51.44362       43.72162       -1.47385
O         51.95752       43.11169       -0.54593
C         52.58659       43.30353       -3.67874
C         53.57993       42.23764       -3.26862
C         54.88857       42.27326       -3.78233
C         53.22757       41.21176       -2.37568
C         55.83122       41.32095       -3.38863
C         54.17078       40.25816       -1.98482
C         55.47887       40.31385       -2.48570
O         56.40205       39.40706       -2.10864
H         53.80846       44.79656       -1.05488
H         51.71464       45.17158       -3.00263
H         52.99245       43.83823       -4.55834
H         51.64415       42.84082       -4.04430
H         55.18771       43.05030       -4.47496
H         52.22365       41.14020       -1.98300
H         56.83841       41.37103       -3.78246
H         53.88311       39.47845       -1.29110
H         56.20003       38.69948       -1.48012
N         50.08548       43.73797       -1.64389
C         49.07344       43.04448       -0.84424
C         48.78020       43.65936        0.52060
O         47.63012       43.59075        0.93558
C         49.29929       41.51642       -0.82108
C         48.09610       40.75268       -0.24164
C         48.26881       39.26913       -0.39620
O         49.30685       38.64090        0.18726
O         47.46311       38.62405       -1.04891
H         49.72621       44.22205       -2.48222
H         48.12261       43.18984       -1.40889
H         50.21666       41.26018       -0.24962
H         49.43812       41.18644       -1.87508
H         47.17249       41.06249       -0.77958
H         47.97353       40.98855        0.83643
N         49.72309       44.28895        1.27547
C         49.41138       44.90884        2.56113
C         48.55051       46.15673        2.39372
O         48.13950       46.71152        3.40417
C         50.71932       45.26519        3.30906
C         51.60416       44.03654        3.61449
C         51.05135       43.17001        4.71220
O         51.82171       42.90427        5.77901
O         49.94245       42.66774        4.63380
H         50.68942       44.33118        0.94526
H         48.83512       44.18825        3.17476
H         50.50917       45.79701        4.26373
H         51.28712       45.95553        2.65442
H         52.60057       44.39901        3.94866
H         51.76724       43.42646        2.70335
N         48.22915       46.66330        1.16668
C         47.38774       47.82846        1.01240
H         46.38847       47.63357        1.45645
H         47.85548       48.70415        1.50875
H         47.25575       48.05722       -0.06704
H         48.58207       46.22719        0.30422
Ca        51.01383       42.01611        7.64799
O         51.49158       40.02137        4.84724
H         51.85991       39.74102        5.72184
H         51.45322       39.19007        4.31186
O         49.07670       39.45099        6.79802
H         48.58542       38.95083        6.09930
H         48.86428       38.97583        7.64045
O         51.74615       39.27724        8.84864
H         52.37748       38.56020        9.10408
H         51.50751       39.70879        9.70655

Ca 1.0



