%chk=apoCaM-CA-Ng.loop2.water4.frame1399.chk
%nprocshared=20
%mem=10GB
%nosave
#b3lyp/svp scf=(tight,noincore,xqc) Test 
#IOP(5/87=12) Density=Current Pop=(MK,readradii) iop(6/33=2) iop(6/42=6)

apoCaM-CA-Ng.loop2.water4.frame1399 

   -2  1 
C         31.42771       76.22770       46.65776
C         31.03918       74.85234       47.13360
O         31.57420       73.88728       46.60830
H         32.18726       76.16490       45.84979
H         30.53516       76.75078       46.25323
H         31.86109       76.81517       47.49442
N         30.11242       74.64288       48.11448
C         29.41130       75.70866       48.82828
C         27.91469       75.73551       48.52971
O         27.27398       76.69177       48.94383
C         29.73950       75.64316       50.33967
C         29.33279       74.37975       51.05781
O         29.66709       74.22764       52.35225
O         28.72198       73.48843       50.49359
H         29.90430       73.66445       48.36356
H         29.77690       76.69549       48.48309
H         29.26882       76.50443       50.86087
H         30.84170       75.74424       50.44663
N         27.28851       74.76118       47.80076
C         25.88784       74.84432       47.38191
C         24.98414       73.88619       48.14293
O         23.78629       73.88371       47.89548
C         25.81360       74.56493       45.87853
H         27.81506       73.92344       47.51347
H         25.48788       75.86394       47.57067
H         26.17442       73.53427       45.66435
H         24.77034       74.65944       45.51129
H         26.45239       75.28555       45.32582
N         25.48225       73.07242       49.10780
C         24.69172       72.17917       49.94396
C         24.82957       72.61620       51.39565
O         25.50332       73.60566       51.65661
C         25.12453       70.71043       49.66940
C         26.60533       70.50926       49.39220
O         26.95356       70.10465       48.29468
O         27.55564       70.79149       50.29978
H         26.49069       73.09551       49.30307
H         23.60335       72.24820       49.72059
H         24.60212       70.40339       48.73636
H         24.76381       70.03125       50.47025
N         24.20464       71.93526       52.40295
C         24.31152       72.32682       53.80223
C         24.84948       71.19099       54.69223
O         26.13304       70.73352       54.35638
H         23.61422       71.12138       52.17433
H         23.29178       72.59138       54.16009
H         24.95132       73.22352       53.93955
N         24.82781       71.62532       56.09832
C         25.87134       71.01664       56.95424
C         25.86803       69.49364       56.88653
O         24.82591       68.87889       57.06562
C         25.70255       71.48468       58.40646
C         26.79892       70.92219       59.28224
N         26.50265       70.08891       60.30567
O         27.96547       71.20701       59.05189
H         23.87389       71.42795       56.48033
H         26.86504       71.39902       56.62308
H         24.70679       71.16367       58.77910
H         25.74803       72.59483       58.44756
H         25.52683       69.82748       60.50726
H         27.25248       69.69252       60.89102
N         27.04272       68.82739       56.69732
C         27.14699       67.37943       56.70854
C         26.79014       66.77054       55.37234
O         26.46183       67.50263       54.44998
H         27.91954       69.36817       56.63756
H         26.55121       66.96842       57.54948
H         28.21332       67.11173       56.87747
N         26.90383       65.43144       55.13947
C         27.17714       64.42330       56.16277
C         28.62801       63.96437       56.18475
O         28.90570       63.05563       56.95490
C         26.24307       63.19827       55.94701
C         24.76424       63.56127       56.10907
O         26.46659       62.64983       54.67111
H         26.75868       65.10406       54.17071
H         26.97641       64.81782       57.17924
H         26.48247       62.43570       56.72514
H         26.08606       61.73280       54.67525
H         24.58193       63.96152       57.12883
H         24.45151       64.31417       55.35657
H         24.14162       62.64959       55.97875
N         29.61120       64.52590       55.41462
C         30.97345       63.98730       55.37730
C         31.98823       65.01624       55.89507
O         32.01913       66.10566       55.34102
C         31.34950       63.58694       53.91816
C         30.24805       62.78399       53.17558
C         32.68966       62.82717       53.89876
C         29.84020       61.46079       53.82351
H         29.39092       65.32984       54.80842
H         31.01742       63.06280       55.97784
H         31.47987       64.51773       53.32132
H         30.60021       62.57454       52.14145
H         29.33905       63.41688       53.08349
H         32.97600       62.57797       52.85603
H         33.50292       63.44380       54.33539
H         32.62412       61.88713       54.48637
H         30.69747       60.76257       53.89010
H         29.41980       61.62578       54.83333
H         29.05215       60.98555       53.20150
N         32.90796       64.76454       56.88451
C         33.00375       63.51881       57.64391
C         34.38504       63.26948       58.25078
O         35.22843       64.15636       58.27620
C         31.95044       63.52633       58.78200
C         32.15998       64.67329       59.74640
O         32.06536       65.82969       59.36471
O         32.44293       64.42709       61.03996
H         33.59178       65.51105       57.08596
H         32.86384       62.66653       56.94980
H         32.00373       62.57102       59.34647
H         30.92912       63.61394       58.36687
N         34.65496       62.03925       58.78083
C         35.85002       61.69750       59.54488
C         36.63452       60.56941       58.88423
O         36.01054       59.57304       58.53770
C         35.38539       61.24284       60.94358
C         36.54459       61.00207       61.87634
C         37.19757       59.75667       61.91769
C         36.99100       62.04050       62.70811
C         38.28052       59.55991       62.78075
C         38.07534       61.84098       63.56477
C         38.71974       60.60197       63.60210
H         33.93466       61.30428       58.68853
H         36.48456       62.59140       59.69069
H         34.74252       60.33493       60.88904
H         34.74644       62.04667       61.37036
H         36.87080       58.94053       61.28491
H         36.50440       63.00757       62.68376
H         38.78157       58.60087       62.81144
H         38.41608       62.64949       64.19761
H         39.55966       60.45077       64.26718
N         38.00406       60.57556       58.76266
C         38.91134       61.61852       59.23685
C         38.77430       62.89511       58.45098
O         38.59356       63.95435       59.03632
C         40.31319       61.01773       59.03786
C         40.03706       59.53416       59.17293
C         38.75949       59.40911       58.35194
H         38.74669       61.77259       60.32505
H         40.66244       61.16712       57.99118
H         41.08777       61.43265       59.71841
H         40.86791       58.87724       58.83925
H         39.80086       59.31264       60.23798
H         38.99913       59.50264       57.26837
H         38.24817       58.44205       58.54617
N         38.81770       62.84573       57.09282
C         38.64947       64.01430       56.25107
C         39.96749       64.78295       56.22184
O         40.92472       64.22577       55.70119
C         38.25149       63.57594       54.82095
C         36.93968       62.75611       54.81691
C         36.55574       62.25498       53.45139
O         35.46041       61.48423       53.31879
O         37.23020       62.51148       52.46624
H         38.92472       61.92349       56.64357
H         37.78905       64.59580       56.62651
H         39.06392       62.95017       54.38771
H         38.11971       64.47707       54.18271
H         36.11075       63.37567       55.22164
H         37.04590       61.86004       55.46292
N         40.16449       66.02828       56.74824
C         39.20158       66.82807       57.47774
H         38.21905       66.35217       57.61176
H         39.60709       67.03267       58.49157
H         39.05567       67.79473       56.95412
H         41.10483       66.44305       56.64969
Ca        27.01879       71.27810       52.38611
O         30.44019       70.92127       51.63185
H         31.26760       70.63664       52.09518
H         30.42432       70.38494       50.79964
O         29.80035       72.17106       54.86554
H         29.89462       71.60494       55.67253
H         30.71020       72.52735       54.70435
O         27.34125       74.73849       54.02056
H         28.16879       75.05237       54.46466
H         26.92198       75.56269       53.66672
O         28.83107       69.36630       53.75658
H         29.20122       68.53709       54.14836
H         28.14025       69.04928       53.12256

Ca 1.0



