%chk=apoCaM-CA-Ng.loop4.water4.frame457.chk
%nprocshared=20
%mem=10GB
%nosave
#b3lyp/svp scf=(tight,noincore,xqc) Test 
#IOP(5/87=12) Density=Current Pop=(MK,readradii) iop(6/33=2) iop(6/42=6)

apoCaM-CA-Ng.loop4.water4.frame457 

   -3  1 
C         49.87752       59.43691       86.91739
C         49.69621       58.36048       87.94484
O         50.31207       57.32587       87.79437
H         50.95268       59.71120       86.86381
H         49.55175       59.06069       85.92484
H         49.29213       60.34522       87.16781
N         48.85375       58.53544       89.00222
C         48.59675       57.59586       90.09554
C         49.65018       56.52249       90.34479
O         49.42861       55.38070       89.99496
C         47.11686       57.14067       90.12448
C         46.46830       56.34447       89.00185
O         47.09055       55.74953       87.95775
O         45.25316       56.23698       89.04962
H         48.32611       59.42075       89.04426
H         48.67164       58.20123       91.02757
H         46.53444       58.08846       90.17468
H         46.92402       56.59762       91.07531
N         50.79997       56.85190       91.02096
C         51.89910       55.96692       91.44060
C         51.47881       54.99631       92.54995
O         51.97677       55.15003       93.65758
C         52.62660       55.29770       90.24062
C         53.81236       54.38837       90.66901
C         53.13375       56.37073       89.25900
C         54.95888       55.09887       91.40207
H         50.91603       57.84429       91.27933
H         52.65328       56.63518       91.91539
H         51.90010       54.64949       89.70627
H         54.23604       53.91687       89.75650
H         53.43826       53.57294       91.32141
H         52.30750       56.98869       88.89005
H         53.84363       57.06973       89.74438
H         53.62855       55.90084       88.38611
H         55.75139       54.36060       91.64419
H         55.42298       55.88273       90.77003
H         54.61110       55.55098       92.35261
N         50.57199       53.99597       92.35942
C         50.10689       53.13547       93.43935
C         51.18223       52.14687       93.89442
O         51.51459       52.21631       95.06967
C         48.75213       52.48914       93.08990
C         47.67615       53.53900       92.95173
O         47.37765       54.34321       93.99129
O         47.06066       53.66088       91.90593
H         50.15411       53.85585       91.43820
H         49.87076       53.77854       94.32064
H         48.44516       51.80745       93.91279
H         48.81885       51.92139       92.14622
N         51.83161       51.22954       93.10808
C         51.66985       50.99712       91.68067
C         50.50379       50.08200       91.35036
O         49.77063       49.71299       92.25695
H         52.58651       50.68921       93.56021
H         52.57431       50.45456       91.33257
H         51.64843       51.96158       91.14611
N         50.26543       49.60777       90.08592
C         51.12150       49.83819       88.91533
C         51.26704       51.32150       88.59585
O         50.42901       52.09712       89.03336
C         50.63195       48.99373       87.70315
C         49.27695       49.37734       87.16549
O         48.18034       49.32188       87.94378
O         49.15775       49.68765       85.99146
H         49.45603       48.97856       89.98002
H         52.12788       49.45773       89.19410
H         50.59583       47.92788       88.01408
H         51.34756       49.04876       86.86354
N         52.35761       51.84250       87.95784
C         53.43975       51.09528       87.34067
C         54.63808       50.95775       88.23296
O         54.59107       51.33832       89.39432
H         52.44959       52.86553       87.92803
H         53.72162       51.61289       86.39840
H         53.14577       50.07380       87.06848
N         55.76086       50.37356       87.72889
C         56.94837       50.08970       88.52201
C         58.11467       50.99949       88.16093
O         59.12320       50.92776       88.85021
C         57.24684       48.56862       88.49936
C         57.50331       47.92423       87.12128
C         58.80525       48.34153       86.50245
N         59.97551       48.05838       87.11966
O         58.80849       48.90741       85.42099
H         55.76542       50.11843       86.73027
H         56.74494       50.33370       89.58824
H         56.34664       48.06648       88.91770
H         58.08935       48.34012       89.18639
H         56.65726       48.13098       86.43377
H         57.54441       46.82119       87.25025
H         59.99079       47.55911       88.02014
H         60.87274       48.31855       86.69198
N         58.01559       51.95580       87.18498
C         58.99044       53.03603       87.02549
C         59.67966       53.05299       85.66947
O         60.52103       53.92073       85.47948
C         58.30583       54.41103       87.29583
C         57.71593       54.47282       88.71293
C         57.21518       54.75277       86.26536
H         57.17547       51.98815       86.59306
H         59.80674       52.92754       87.77370
H         59.08538       55.20262       87.22909
H         58.50886       54.28527       89.46715
H         57.28760       55.48006       88.90436
H         56.90876       53.72046       88.84411
H         57.62829       54.75375       85.23470
H         56.36784       54.03844       86.30915
H         56.81695       55.76834       86.47142
N         59.41407       52.13928       84.69191
C         60.11061       52.14227       83.40836
C         59.15847       52.21598       82.22223
O         59.66319       52.17298       81.10719
C         60.98288       50.87197       83.29785
C         62.02520       50.79050       84.38739
N         62.97494       51.74577       84.52229
O         62.02173       49.83825       85.14938
H         58.73241       51.38912       84.86643
H         60.78773       53.01848       83.31878
H         61.51980       50.86542       82.32431
H         60.32912       49.97286       83.33543
H         63.01093       52.55393       83.88541
H         63.68366       51.67377       85.26785
N         57.79803       52.33712       82.34351
C         56.91985       52.28209       81.17155
C         55.48182       52.69455       81.47014
O         54.92254       52.28831       82.47888
C         56.97797       50.87173       80.51355
C         56.61443       49.72330       81.43533
C         57.61802       48.85546       81.90437
C         55.28291       49.48624       81.81776
C         57.29818       47.79187       82.75375
C         54.96458       48.42284       82.66708
C         55.96901       47.57450       83.14102
O         55.64521       46.55361       83.96005
H         57.37561       52.45448       83.27614
H         57.29800       53.00548       80.41505
H         58.01426       50.71171       80.15447
H         56.34509       50.83329       79.60096
H         58.65215       49.00476       81.62028
H         54.48362       50.11195       81.45104
H         58.08435       47.13810       83.11006
H         53.93358       48.25625       82.95305
H         56.30992       45.94253       84.30855
N         54.80342       53.45661       80.55543
C         53.37379       53.77227       80.59688
C         52.94608       54.69469       81.72353
O         51.76360       55.00700       81.77216
C         52.51501       52.48528       80.54484
C         52.71634       51.70097       79.23566
C         52.23317       52.48370       78.04243
O         50.94425       52.86973       77.96571
O         53.00289       52.77290       77.14049
H         55.31154       53.77494       79.71583
H         53.13062       54.35655       79.68163
H         51.43567       52.74322       80.61680
H         52.74774       51.83526       81.41120
H         52.12859       50.76057       79.28385
H         53.78825       51.43194       79.11539
N         53.83220       55.26532       82.58608
C         53.44158       56.31022       83.52524
C         53.99435       57.65797       83.08097
O         53.73798       58.63899       83.76592
C         53.91607       55.95626       84.94586
C         53.33912       54.64625       85.51205
C         51.84758       54.71096       85.70039
O         51.09673       54.76010       84.74119
O         51.33818       54.74079       86.94397
H         54.83471       55.03950       82.51921
H         52.34190       56.45166       83.54248
H         53.64390       56.77944       85.64464
H         55.02123       55.87718       84.92804
H         53.80795       54.49387       86.50752
H         53.61046       53.77388       84.88067
N         54.71650       57.79875       81.92749
C         55.20744       59.06980       81.43985
H         56.31247       59.02543       81.35148
H         54.77499       59.26156       80.43480
H         54.93540       59.91526       82.10448
H         54.92643       56.98441       81.33447
Ca        49.14413       55.02603       87.36588
O         46.20727       53.15891       86.28616
H         45.88086       52.36247       86.77524
H         45.57740       53.88024       86.53707
O         47.76310       55.99859       84.77803
H         47.09334       55.28496       84.62996
H         48.61306       55.60761       84.45580
O         49.20892       52.49649       85.42723
H         50.13703       52.15078       85.42908
H         48.88138       52.32757       86.34632
O         47.35523       52.50086       89.10628
H         47.96905       53.16444       89.50853
H         47.43173       51.70508       89.69017

Ca 1.0



