%chk=apoCaM-CA-Ng.loop1.water4.frame93.chk
%nprocshared=20
%mem=10GB
%nosave
#b3lyp/svp scf=(tight,noincore,xqc) Test 
#IOP(5/87=12) Density=Current Pop=(MK,readradii) iop(6/33=2) iop(6/42=6)

apoCaM-CA-Ng.loop1.water4.frame93 

   0  1 
C         54.93164       55.73376      117.27721
C         55.26506       54.47103      118.01898
O         55.09940       54.43626      119.22911
H         55.55333       56.56687      117.66708
H         55.12892       55.63238      116.18861
H         53.85905       55.98005      117.41908
N         55.74703       53.38508      117.35102
C         56.08478       52.11555      117.99495
C         57.27415       52.19060      118.96489
O         57.62688       51.15811      119.50698
C         56.33328       51.01585      116.92789
C         57.56566       51.22671      116.08426
O         57.66992       52.20209      115.35870
O         58.55180       50.31000      116.10234
H         55.82231       53.45744      116.32597
H         55.19482       51.77685      118.56358
H         55.44518       50.94295      116.26211
H         56.43050       50.03686      117.44631
N         57.94731       53.34791      119.23435
C         59.14416       53.41203      120.07286
C         58.90053       54.28531      121.30325
O         58.40002       55.38400      121.11156
C         60.27833       54.05258      119.24146
C         60.66658       53.22055      118.00730
C         61.68718       53.94320      117.10503
C         63.02575       54.30860      117.77353
N         63.76242       53.12980      118.22984
H         57.64637       54.22857      118.80108
H         59.46296       52.40432      120.37808
H         61.17112       54.17321      119.88475
H         59.95465       55.06403      118.90914
H         59.76332       53.04032      117.38624
H         61.05609       52.23168      118.32797
H         61.22252       54.88449      116.73761
H         61.89278       53.30280      116.22022
H         62.85731       55.00450      118.62130
H         63.64692       54.85291      117.02814
H         63.22976       52.62544      118.97284
H         63.94699       52.48880      117.42460
H         64.67737       53.43747      118.63199
N         59.28478       53.97037      122.58904
C         59.97119       52.77011      123.07741
C         61.19214       52.40637      122.23184
O         61.21784       51.32179      121.67056
C         58.98889       51.58833      123.23536
C         57.95845       51.76470      124.31633
O         57.86472       52.90056      125.03210
O         57.22212       50.83011      124.58767
H         59.13012       54.70281      123.30041
H         60.35384       52.96716      124.10452
H         59.57768       50.71505      123.56656
H         58.48629       51.35896      122.27399
N         62.25486       53.23845      122.05751
C         62.43838       54.49768      122.75706
C         63.52860       55.34718      122.12119
O         63.94281       55.05705      121.00707
H         62.99566       52.91515      121.41591
H         62.65564       54.26294      123.81770
H         61.52144       55.11731      122.71612
N         64.01312       56.47072      122.71718
C         63.71184       56.84785      124.09538
C         64.37914       55.87934      125.06796
O         65.17624       55.05376      124.64343
C         64.18496       58.29852      124.37296
C         65.66851       58.54989      124.20267
O         66.14904       59.79250      124.39474
O         66.43962       57.65632      123.88793
H         64.65420       57.06161      122.16561
H         62.60913       56.82667      124.23625
H         63.90448       58.58669      125.40819
H         63.64464       58.97546      123.67659
N         64.11492       55.94507      126.40386
C         64.81739       55.13048      127.38136
C         64.64511       53.64968      127.14593
O         65.63947       52.98170      126.89370
H         63.42422       56.62778      126.74783
H         64.45929       55.37611      128.40425
H         65.89937       55.38579      127.33281
N         63.42430       53.05052      127.25048
C         63.26563       51.60487      127.08140
C         63.57331       51.19565      125.64393
O         63.63959       52.05028      124.77177
C         61.85480       51.13385      127.52709
C         61.62559       51.41701      129.02087
O         61.72310       49.75257      127.31849
H         62.61095       53.63401      127.49913
H         64.01022       51.10653      127.74357
H         61.09524       51.67500      126.91482
H         60.75478       49.54381      127.38145
H         60.61940       51.05972      129.32439
H         62.38147       50.87830      129.63235
H         61.68721       52.49974      129.24980
N         63.85190       49.89325      125.35042
C         64.24408       49.42313      124.02248
C         63.31319       48.33152      123.48805
O         63.56434       47.83839      122.39744
C         65.74456       48.97037      124.05507
C         66.11400       47.85803      125.08024
C         66.63873       50.19242      124.34546
C         65.43386       46.50913      124.86074
H         63.85023       49.20935      126.12164
H         64.17737       50.24933      123.27990
H         66.01995       48.61097      123.03872
H         65.91821       48.19696      126.11998
H         67.20784       47.67091      124.99649
H         66.44094       50.59944      125.36060
H         67.71280       49.91229      124.29046
H         66.46003       50.99536      123.59952
H         64.34746       46.56812      125.05061
H         65.62564       46.14183      123.83056
H         65.84600       45.77189      125.58194
N         62.24354       47.87876      124.20581
C         61.42307       46.73410      123.80546
C         60.63494       46.93780      122.51393
O         60.32535       45.94894      121.86535
C         60.46273       46.32298      124.95444
C         59.39442       47.39045      125.25866
O         61.22342       46.07411      126.10997
H         62.05357       48.30466      125.11990
H         62.11592       45.87572      123.65017
H         59.94690       45.38320      124.64924
H         60.63451       45.59665      126.75064
H         58.74326       47.56368      124.38053
H         58.74778       47.04979      126.09400
H         59.85159       48.35707      125.54498
N         60.18380       48.17289      122.14610
C         59.30848       48.46236      121.00141
C         57.93468       47.79363      121.15217
O         57.75471       46.98321      122.05058
C         60.00777       48.10777      119.65674
C         61.33285       48.86187      119.50321
O         59.18377       48.44930      118.57315
H         60.46085       48.96588      122.73356
H         59.11986       49.55465      121.00279
H         60.20679       47.01271      119.63790
H         59.46940       47.89433      117.80081
H         62.03025       48.61695      120.32935
H         61.81821       48.58051      118.54520
H         61.14940       49.95635      119.49100
N         56.90518       48.10379      120.30396
C         55.60640       47.43327      120.32492
C         54.43524       48.37569      120.59912
O         53.33809       47.86490      120.76177
C         55.38567       46.74931      118.96021
C         56.51121       45.75997      118.62362
C         56.34371       45.18683      117.21401
C         57.50812       44.24796      116.87331
N         57.38361       43.73069      115.51193
H         57.05332       48.80785      119.57189
H         55.58932       46.65872      121.12301
H         55.35361       47.53928      118.17578
H         54.41249       46.21035      118.95277
H         56.52138       44.93990      119.37438
H         57.48929       46.28405      118.65761
H         56.33250       46.02465      116.48167
H         55.38069       44.63590      117.14257
H         57.52397       43.39934      117.59268
H         58.46970       44.80234      116.96312
H         57.39853       44.52044      114.82597
H         58.19088       43.09663      115.31327
H         56.49350       43.19125      115.41162
N         54.57519       49.73295      120.68899
C         53.46945       50.65464      120.97458
C         52.64235       50.96962      119.72160
O         52.62357       52.11558      119.28764
C         54.02675       51.97209      121.58087
C         54.86437       51.80313      122.85477
C         54.09643       51.24708      124.02274
O         53.65420       50.11028      123.99685
O         53.93152       51.99409      125.12955
H         55.51794       50.13273      120.60658
H         52.79099       50.21618      121.73403
H         53.18445       52.66361      121.80699
H         54.68091       52.46135      120.82979
H         55.24614       52.80936      123.13554
H         55.73871       51.15866      122.64203
N         51.89214       50.01849      119.10056
C         51.08464       50.32160      117.93835
H         50.33673       51.10415      118.19048
H         51.73069       50.67945      117.10899
H         50.54331       49.41121      117.60422
H         51.85801       49.05997      119.46031
Ca        56.35131       52.98318      126.70987
O         54.42363       50.11001      127.97852
H         53.58611       49.77620      127.56894
H         54.13166       50.55036      128.81607
O         58.68458       53.34009      128.70792
H         58.68671       52.35775      128.58701
H         59.01847       53.69477      127.84592
O         53.47349       53.57793      127.78578
H         53.00312       52.71899      127.64024
H         53.65608       53.59831      128.75856
O         57.79349       49.83249      127.73008
H         57.84320       48.95431      128.18423
H         58.10241       49.65044      126.80806

Ca 1.0



