%chk=apoCaM-CA-Ng.loop3.water4.frame1015.chk
%nprocshared=20
%mem=10GB
%nosave
#b3lyp/svp scf=(tight,noincore,xqc) Test 
#IOP(5/87=12) Density=Current Pop=(MK,readradii) iop(6/33=2) iop(6/42=6)

apoCaM-CA-Ng.loop3.water4.frame1015 

   0  1 
C         43.43091       20.82901       25.76047
C         42.28987       21.05262       24.81125
O         41.44889       21.89582       25.08868
H         44.00515       21.77220       25.87768
H         43.03755       20.51650       26.74994
H         44.12088       20.04220       25.38882
N         42.20224       20.33975       23.65388
C         41.13599       20.54256       22.68221
C         39.75149       20.26416       23.25240
O         38.85764       21.05254       22.98365
C         41.38939       19.77631       21.35827
C         41.49966       18.27312       21.41934
O         41.42781       17.59634       22.57817
O         41.68508       17.65320       20.38456
H         42.94174       19.65284       23.44108
H         41.15293       21.61327       22.37174
H         42.33895       20.15557       20.92034
H         40.57047       20.03318       20.65147
N         39.49350       19.20287       24.07207
C         38.14675       18.89094       24.54292
C         37.29905       18.39695       23.38083
O         37.69770       17.46469       22.69590
C         38.17543       17.85937       25.68949
C         36.74550       17.57221       26.20041
C         36.68558       16.70743       27.46657
C         37.20326       17.44909       28.71138
N         37.02020       16.64017       29.91549
H         40.27462       18.61207       24.38832
H         37.70252       19.81017       24.98884
H         38.78498       18.30469       26.50274
H         38.65718       16.91029       25.36758
H         36.19158       17.04096       25.39624
H         36.21077       18.52552       26.40848
H         37.24062       15.75728       27.31056
H         35.61589       16.46034       27.64490
H         36.63709       18.40060       28.83071
H         38.27996       17.69517       28.60123
H         37.56570       15.75167       29.83777
H         37.36130       17.17917       30.74415
H         36.00599       16.42261       30.05219
N         36.09431       18.97849       23.12220
C         35.22472       18.59790       22.00601
C         35.77373       19.02266       20.64553
O         35.10724       18.77978       19.64848
C         33.80628       19.17940       22.21397
C         33.77401       20.66765       22.44936
O         33.31837       21.08988       23.50049
O         34.23148       21.54984       21.53959
H         35.77193       19.70470       23.77855
H         35.10327       17.49162       21.99780
H         33.36941       18.68297       23.10936
H         33.15590       18.92301       21.35010
N         36.96336       19.67198       20.52105
C         37.49256       20.18251       19.27386
C         37.78089       19.13393       18.22238
O         37.50832       17.96261       18.44226
H         37.52147       19.87666       21.35238
H         38.43978       20.69181       19.51982
H         36.77016       20.91285       18.85618
N         38.32233       19.47273       17.01374
C         38.76045       20.82384       16.65658
C         39.97440       21.19943       17.50682
O         40.94962       20.46200       17.46267
C         39.13760       20.87271       15.15893
C         39.54639       22.25844       14.72023
N         40.78368       22.48958       14.22261
O         38.74910       23.18029       14.80993
H         38.43517       18.71974       16.31566
H         37.91001       21.52348       16.79278
H         38.25958       20.56454       14.54991
H         39.95782       20.14861       14.95952
H         41.47078       21.72673       14.13581
H         41.05809       23.43708       13.92351
N         40.02312       22.29426       18.32306
C         38.95543       23.28056       18.42652
C         39.22772       24.35905       19.45396
O         40.22704       24.31637       20.15815
H         40.88311       22.42312       18.87772
H         38.00255       22.80535       18.71642
H         38.82631       23.76165       17.43482
N         38.35442       25.39916       19.55468
C         38.54838       26.54197       20.44065
C         37.26179       26.82435       21.23063
O         36.30190       26.08114       21.07764
C         38.98654       27.71815       19.53208
C         39.47882       28.92728       20.28327
C         38.83677       30.16624       20.13318
C         40.58090       28.82449       21.15130
C         39.27574       31.27926       20.85509
C         41.01840       29.93855       21.87063
C         40.36358       31.16982       21.72790
O         40.76982       32.25102       22.42262
H         37.55689       25.42756       18.89981
H         39.36779       26.33474       21.16084
H         38.14680       27.97623       18.84956
H         39.83724       27.37731       18.90108
H         37.98951       30.26764       19.46718
H         41.09814       27.88174       21.27877
H         38.76568       32.22663       20.73868
H         41.86324       29.84150       22.54094
H         41.51395       32.21441       23.04044
N         37.15333       27.90709       22.06086
C         35.91181       28.28409       22.73838
C         35.24806       29.43413       21.99692
O         35.84632       29.98723       21.08484
C         36.17015       28.67325       24.23355
C         36.82542       27.54234       25.05644
C         37.03879       29.94619       24.36463
C         35.95359       26.29663       25.16912
H         37.94902       28.54180       22.15493
H         35.18652       27.44520       22.68744
H         35.19112       28.91223       24.70525
H         36.99788       27.91103       26.09235
H         37.81210       27.26952       24.62252
H         38.06288       29.79600       23.96605
H         36.57338       30.80499       23.83726
H         37.13536       30.23435       25.43320
H         35.79153       25.83037       24.17705
H         36.46414       25.55896       25.82275
H         34.97401       26.55391       25.62574
N         33.98779       29.83433       22.33370
C         33.31130       30.95965       21.69462
C         32.10101       30.50225       20.90244
O         31.78106       29.32197       20.90560
C         32.91776       31.98807       22.76941
O         32.02855       31.42623       23.70041
H         33.48498       29.31814       23.07184
H         33.99130       31.46276       20.97377
H         32.47926       32.90038       22.30340
H         33.82562       32.32579       23.31209
H         31.12195       31.77710       23.49749
N         31.38844       31.41482       20.17735
C         30.19656       31.11420       19.39455
C         29.08171       30.62269       20.29737
O         28.55955       29.53498       20.09320
C         30.51752       30.15569       18.23607
H         31.70120       32.39722       20.18275
H         29.84043       32.06169       18.93145
H         30.85905       29.16514       18.59891
H         29.61268       30.00440       17.60906
H         31.31233       30.59446       17.59598
N         28.67103       31.40950       21.33684
C         27.58798       31.08819       22.26359
C         27.85456       29.87175       23.14511
O         26.98616       29.55081       23.94558
C         26.25930       30.94418       21.50478
H         29.13962       32.31927       21.46891
H         27.46827       31.95155       22.95562
H         26.06170       31.86458       20.91511
H         26.26716       30.07392       20.81799
H         25.42010       30.80838       22.21985
N         29.01210       29.14937       23.08266
C         29.24861       27.97560       23.91244
C         29.27704       28.35873       25.37810
O         28.44849       27.86492       26.13127
C         30.53171       27.24291       23.45526
C         30.80606       25.99145       24.29820
C         31.75721       25.05370       23.61202
O         33.00137       25.42131       23.25018
O         31.38481       23.91885       23.35793
H         29.74729       29.42167       22.42187
H         28.41091       27.25938       23.74618
H         31.42487       27.90527       23.47691
H         30.35464       26.93725       22.39942
H         29.85290       25.43801       24.44949
H         31.19719       26.28747       25.29552
N         30.19057       29.24504       25.85397
C         30.21298       29.64276       27.24471
H         31.02600       30.37868       27.41685
H         29.24387       30.11330       27.51865
H         30.38733       28.75622       27.89092
H         30.88213       29.65620       25.21168
Ca        34.07621       23.69097       22.26531
O         35.68641       23.10388       24.88387
H         35.50066       22.15601       24.67189
H         36.67176       23.18118       24.82637
O         33.28796       26.03012       20.08911
H         33.66574       26.83683       19.65677
H         32.39765       26.31580       20.41490
O         35.17916       23.44129       19.19810
H         34.89258       22.61060       18.74199
H         35.31354       24.09347       18.46564
O         37.15576       23.16977       21.61453
H         36.74643       22.40976       22.09818
H         37.69303       23.64141       22.29958

Ca 1.0



