%chk=apoCaM-CA-Ng.loop3.water2.frame592.chk
%nprocshared=20
%mem=10GB
%nosave
#b3lyp/svp scf=(tight,noincore,xqc) Test 
#IOP(5/87=12) Density=Current Pop=(MK,readradii) iop(6/33=2) iop(6/42=6)

apoCaM-CA-Ng.loop3.water2.frame592 

   0  1 
C         40.53979      112.80263       70.44545
C         40.01053      113.33106       69.14706
O         38.81337      113.25410       68.90834
H         41.02217      113.63071       71.00815
H         39.71941      112.38444       71.06630
H         41.29024      112.00955       70.24971
N         40.85923      113.92595       68.26610
C         40.40066      114.54429       67.03205
C         39.87123      113.50591       66.05388
O         40.60825      112.60988       65.66676
C         41.53101      115.39317       66.41240
C         41.07866      116.27131       65.27541
O         41.96483      117.09650       64.68783
O         39.92080      116.26194       64.88732
H         41.85593      114.00090       68.52443
H         39.59910      115.25143       67.30091
H         42.35933      114.73478       66.07465
H         41.92277      116.07815       67.19557
N         38.58864      113.59443       65.60005
C         37.98910      112.66590       64.64432
C         38.77777      112.58619       63.34344
O         39.06122      111.48125       62.90209
C         36.49712      113.01641       64.38283
C         36.24343      114.39246       63.73624
C         34.74331      114.67184       63.57631
C         34.51265      116.06059       62.96217
N         33.08674      116.34240       62.80739
H         38.00871      114.36614       65.96058
H         37.97798      111.64935       65.09969
H         35.96406      112.97865       65.35853
H         36.05610      112.23159       63.72835
H         36.70650      114.42310       62.73040
H         36.68396      115.19399       64.36477
H         34.25122      114.63116       64.57281
H         34.28978      113.89679       62.92004
H         35.00393      116.11653       61.96671
H         34.96602      116.83312       63.61976
H         32.60827      116.30511       63.73631
H         32.97120      117.30144       62.40649
H         32.65279      115.64864       62.15631
N         39.17718      113.71255       62.68599
C         39.85572      113.70048       61.39124
C         41.30916      114.16569       61.47099
O         41.96874      114.17596       60.44101
C         39.01533      114.51124       60.37582
C         38.72754      115.93239       60.79291
O         39.62949      116.73441       60.94804
O         37.45607      116.33351       60.97599
H         38.98460      114.62660       63.11977
H         39.91485      112.66321       60.99475
H         38.03922      113.99213       60.25766
H         39.51682      114.51374       59.38439
N         41.90080      114.49859       62.65402
C         43.31193      114.84002       62.79819
C         43.75859      116.13734       62.14139
O         44.93122      116.45509       62.27962
H         41.35344      114.42688       63.51811
H         43.92772      114.00311       62.40326
H         43.53849      114.93525       63.88194
N         42.92276      116.92631       61.40598
C         43.34946      118.14896       60.72730
C         42.47065      119.32975       61.11002
O         41.47123      119.15026       61.78290
C         43.27659      117.91604       59.20635
C         44.23484      116.82969       58.78333
N         43.78424      115.67555       58.23898
O         45.43567      116.99502       58.93930
H         41.95226      116.63679       61.27549
H         44.39468      118.40796       61.00577
H         43.53817      118.84052       58.64939
H         42.23204      117.63985       58.93748
H         42.77640      115.50913       58.10596
H         44.44792      114.93807       57.95871
N         42.80371      120.58729       60.70561
C         42.01503      121.78063       60.98616
C         41.82604      122.02286       62.46780
O         42.80642      121.99471       63.19910
H         43.67246      120.71344       60.16385
H         41.03185      121.71800       60.47285
H         42.55952      122.65418       60.56610
N         40.59078      122.32981       62.97309
C         40.36878      122.61303       64.38969
C         40.23780      121.30107       65.21116
O         41.17121      120.33838       64.84447
C         39.07351      123.43519       64.60837
C         39.10777      124.84385       64.05869
C         40.05335      125.77307       64.53121
C         38.15289      125.26332       63.11679
C         40.03912      127.09502       64.07308
C         38.13876      126.58691       62.66286
C         39.08005      127.50854       63.14336
O         39.06643      128.79181       62.72819
H         39.80637      122.44733       62.31434
H         41.22761      123.20752       64.77313
H         38.88903      123.55015       65.69806
H         38.21486      122.86602       64.18850
H         40.79131      125.48304       65.26812
H         37.40609      124.57282       62.74634
H         40.76591      127.80319       64.45217
H         37.38845      126.89799       61.94680
H         38.40690      129.12458       62.10257
N         40.22684      121.58072       66.66205
C         40.56165      120.53959       67.65853
C         39.67089      119.31087       67.56796
O         39.75957      118.59341       66.58577
C         42.06345      120.07182       67.65625
C         42.35669      119.37503       69.01623
C         43.05481      121.22172       67.40556
C         43.72505      118.70672       69.12255
H         40.77008      122.44642       66.88657
H         40.38229      121.03508       68.63934
H         42.21914      119.33870       66.83434
H         41.61032      118.57667       69.18829
H         42.25551      120.11761       69.83892
H         42.96853      122.00204       68.18839
H         44.09615      120.84355       67.37221
H         42.87827      121.67743       66.40939
H         43.82786      117.92133       68.34506
H         44.54950      119.44030       69.03183
H         43.81235      118.22901       70.12232
N         38.86007      118.95102       68.60355
C         38.21842      117.64095       68.67916
C         36.71394      117.69080       68.59461
O         36.10476      116.63542       68.71967
C         38.65593      116.94380       69.98051
O         40.04751      116.79424       69.99868
H         38.76159      119.58600       69.41083
H         38.52408      117.00677       67.83032
H         38.18979      115.93515       70.04336
H         38.32706      117.55757       70.85061
H         40.27685      116.44244       70.89786
N         36.02730      118.84149       68.34817
C         34.57350      118.83542       68.27856
C         34.07543      117.95002       67.13160
O         34.81762      117.77897       66.17369
C         34.04155      120.25761       68.07163
H         36.53691      119.72896       68.22510
H         34.23838      118.46217       69.26426
H         34.38842      120.91983       68.89220
H         34.40865      120.66709       67.10454
H         32.93310      120.26350       68.05905
N         32.82396      117.40103       67.08259
C         31.84214      117.44404       68.16239
C         30.73457      118.42718       67.83007
O         30.63016      118.82747       66.68213
C         31.31593      116.02200       68.41134
H         32.54931      116.90997       66.21718
H         32.31250      117.80869       69.08299
H         30.56568      115.97602       69.22391
H         30.83793      115.62332       67.49114
H         32.16088      115.35415       68.68578
N         29.93287      118.98344       68.79178
C         29.97902      118.67722       70.21940
C         30.64621      119.78014       71.03072
O         30.78018      119.60695       72.23115
C         28.56183      118.34968       70.74137
C         27.60620      119.55874       70.73476
C         26.24100      119.16812       71.21782
O         25.58438      118.34334       70.60214
O         25.72447      119.74168       72.32117
H         29.29003      119.72671       68.47858
H         30.59488      117.78237       70.41044
H         28.63982      117.97653       71.78675
H         28.14285      117.52881       70.11817
H         27.49540      119.97994       69.71627
H         28.01344      120.35114       71.39994
N         31.11715      120.92315       70.44510
C         31.79651      121.96922       71.18385
H         32.81557      122.10759       70.76491
H         31.23207      122.91863       71.07878
H         31.89524      121.73590       72.26443
H         31.00896      121.07350       69.43472
Ca        39.73614      118.90529       63.79127
O         36.73474      118.87326       64.18025
H         37.08354      118.03806       64.58282
H         37.00054      119.58450       64.81581
O         38.07505      120.04373       61.37554
H         38.85973      120.02430       60.77199
H         37.94772      121.00238       61.58761

Ca 1.0



