%chk=apoCaM-CA-Ng.loop1.water0.frame918.chk
%nprocshared=20
%mem=10GB
%nosave
#b3lyp/svp scf=(tight,noincore,xqc) Test 
#IOP(5/87=12) Density=Current Pop=(MK,readradii) iop(6/33=2) iop(6/42=6)

apoCaM-CA-Ng.loop1.water0.frame918 

   0  1 
C         20.99044       32.25773       32.93291
C         21.78083       31.14287       33.55889
O         22.64688       30.58959       32.89681
H         20.22915       32.66163       33.63393
H         21.67250       33.08408       32.64292
H         20.46733       31.88236       32.02870
N         21.54182       30.76668       34.84684
C         22.27260       29.69147       35.51673
C         22.08381       28.35758       34.78967
O         20.97451       27.86008       34.68343
C         21.99067       29.67309       37.05059
C         20.58105       29.99760       37.51565
O         19.55084       29.13963       37.41918
O         20.37469       31.08216       38.03888
H         20.82240       31.28944       35.36556
H         23.35726       29.93307       35.45127
H         22.60626       30.51284       37.44680
H         22.38869       28.75328       37.53010
N         23.16738       27.77744       34.18732
C         23.13720       26.57943       33.34694
C         22.85822       25.32048       34.15406
O         23.53919       25.08197       35.14155
C         24.48064       26.47864       32.58077
C         24.50155       25.37477       31.50896
C         25.70442       25.56142       30.56778
C         25.71596       24.51695       29.44296
N         26.76779       24.81132       28.46798
H         24.07171       28.26872       34.26618
H         22.35889       26.71846       32.56403
H         25.33972       26.35193       33.27706
H         24.60705       27.45199       32.05516
H         23.58061       25.45616       30.89164
H         24.52141       24.37287       31.99070
H         26.65841       25.50865       31.13700
H         25.62585       26.56943       30.10304
H         24.73535       24.52370       28.91708
H         25.87577       23.50520       29.87681
H         26.76357       24.07654       27.72407
H         26.58592       25.73885       28.01811
H         27.70493       24.82444       28.93131
N         21.89739       24.43964       33.74258
C         21.55904       23.19361       34.44194
C         21.94797       22.00268       33.57866
O         22.38423       22.22568       32.45688
C         20.02977       23.16477       34.68385
C         19.57150       24.43460       35.31892
O         18.78849       25.16437       34.72979
O         20.08767       24.82433       36.49285
H         21.38887       24.64658       32.86853
H         22.10706       23.13595       35.40779
H         19.72451       22.31416       35.32142
H         19.50875       23.05804       33.70512
N         21.79538       20.69836       33.95068
C         21.36271       20.17170       35.23773
C         22.26107       19.02637       35.67327
O         23.30002       18.80689       35.06714
H         21.98236       19.99718       33.22433
H         20.35239       19.73545       35.08462
H         21.30556       20.94034       36.03410
N         21.88570       18.21039       36.69957
C         22.63162       17.00708       37.07248
C         22.59300       15.99698       35.92949
O         21.50620       15.59298       35.53717
C         22.01294       16.37482       38.34455
C         22.74919       15.16351       38.86827
O         22.28871       14.54052       39.96945
O         23.75533       14.74002       38.32068
H         21.01758       18.43829       37.20964
H         23.67889       17.29411       37.31509
H         20.95975       16.08252       38.13831
H         22.00838       17.13571       39.15415
N         23.74377       15.52253       35.36498
C         23.74648       14.51222       34.31244
C         23.16507       14.98934       32.99507
O         23.01201       14.16914       32.10141
H         24.65247       15.84797       35.72683
H         23.17116       13.63147       34.67201
H         24.78820       14.18062       34.11299
N         22.84136       16.29562       32.79093
C         22.23946       16.81784       31.57289
C         20.90206       17.44154       31.93114
O         20.70842       17.82327       33.07763
C         23.22597       17.81691       30.91116
C         22.70841       18.40122       29.59872
O         23.52957       18.87816       31.77845
H         23.02621       16.97196       33.53698
H         22.05013       15.99075       30.85373
H         24.16091       17.26239       30.65913
H         24.28845       18.59052       32.35004
H         21.79978       19.00788       29.77398
H         23.48086       19.06839       29.15955
H         22.48268       17.59154       28.87430
N         19.89476       17.51395       31.01913
C         18.57737       18.02062       31.38154
C         17.80983       16.89710       32.05660
O         17.36021       17.08826       33.17802
C         17.85515       18.69173       30.18015
C         18.79095       19.65378       29.39007
C         16.60470       19.45107       30.66945
C         19.46349       20.75628       30.22096
H         20.04156       17.12234       30.07617
H         18.70433       18.84123       32.12444
H         17.52834       17.90821       29.46204
H         18.21698       20.12751       28.56463
H         19.59358       19.05763       28.91003
H         16.87787       20.24202       31.40151
H         16.08463       19.93579       29.81606
H         15.89122       18.76111       31.16469
H         20.09904       20.32601       31.02270
H         20.12596       21.35575       29.56111
H         18.71669       21.43787       30.67345
N         17.74245       15.65542       31.48408
C         17.22539       14.48347       32.19106
C         16.11318       13.79831       31.41281
O         15.86639       14.12115       30.25911
C         18.40081       13.49347       32.45833
C         19.47904       14.12131       33.34586
O         17.94377       12.32871       33.09720
H         18.16818       15.51015       30.55532
H         16.78939       14.78603       33.16814
H         18.85260       13.22884       31.47142
H         18.50945       11.57553       32.78178
H         19.90958       15.02334       32.87176
H         19.04848       14.39769       34.33243
H         20.30191       13.39359       33.51167
N         15.38811       12.82793       32.03657
C         14.32943       12.03758       31.42669
C         12.99406       12.35106       32.08640
O         12.04225       12.60500       31.36051
C         14.69136       10.52684       31.44955
C         14.95278        9.93836       32.84053
O         15.84115       10.31547       30.66991
H         15.59859       12.64279       33.02554
H         14.21771       12.29383       30.34824
H         13.83935        9.95149       31.01423
H         15.54605       10.26369       29.72291
H         15.82484       10.42185       33.32631
H         14.06711       10.03849       33.49189
H         15.18250        8.85564       32.74545
N         12.85529       12.43486       33.44431
C         11.60754       12.85378       34.07557
C         11.87263       13.52372       35.41716
O         12.46962       12.92821       36.30291
C         10.58046       11.71258       34.13225
C         11.04563       10.45048       34.86942
C          9.94655        9.38505       34.78792
C         10.37125        8.06720       35.44119
N          9.31287        7.06637       35.30405
H         13.68331       12.30545       34.04268
H         11.14400       13.63413       33.43279
H         10.33781       11.42766       33.08531
H          9.64966       12.09858       34.60379
H         11.27319       10.67608       35.93265
H         11.96022       10.05838       34.38071
H          9.71374        9.18818       33.71810
H          9.02882        9.76517       35.28860
H         10.58702        8.23625       36.51929
H         11.29577        7.68920       34.95003
H          8.43452        7.40539       35.75992
H          9.12988        6.87608       34.29138
H          9.61499        6.17827       35.76462
N         11.47703       14.81812       35.58578
C         11.75904       15.64812       36.74394
C         12.74643       16.75981       36.36528
O         13.78925       16.79689       37.00339
C         10.43845       16.16341       37.36279
C         10.66713       17.13767       38.53120
C          9.36193       17.55703       39.14608
O          8.56013       16.64000       39.72061
O          9.02721       18.73120       39.14034
H         10.94733       15.25094       34.82530
H         12.25607       15.04230       37.53678
H          9.86414       15.28105       37.72293
H          9.81368       16.66821       36.60261
H         11.19744       18.04094       38.15577
H         11.29300       16.66124       39.31510
N         12.56846       17.70733       35.39069
C         11.44775       17.82937       34.48118
H         10.49746       17.97024       35.02537
H         11.59227       18.72047       33.83504
H         11.40545       16.97309       33.78374
H         13.31629       18.40885       35.27323
Ca        19.72901       26.97091       36.96095

Ca 1.0



