%chk=apoCaM-CA-Ng.loop3.water2.frame564.chk
%nprocshared=20
%mem=10GB
%nosave
#b3lyp/svp scf=(tight,noincore,xqc) Test 
#IOP(5/87=12) Density=Current Pop=(MK,readradii) iop(6/33=2) iop(6/42=6)

apoCaM-CA-Ng.loop3.water2.frame564 

   0  1 
C         43.21232        0.35276       89.15029
C         42.27989       -0.75288       89.53681
O         41.11098       -0.47372       89.76135
H         44.23850       -0.02766       88.96842
H         42.84030        0.84120       88.22571
H         43.24941        1.10263       89.96863
N         42.72961       -2.03527       89.65797
C         41.86850       -3.13729       90.05422
C         42.30614       -3.62296       91.41985
O         43.43436       -4.07420       91.56521
C         41.89879       -4.25025       88.98210
C         40.87890       -5.32372       89.24556
O         40.70012       -6.21768       88.43402
O         40.11093       -5.24987       90.34584
H         43.72785       -2.23554       89.49121
H         40.81799       -2.78129       90.12798
H         42.91426       -4.69212       88.89860
H         41.63489       -3.79018       88.00456
N         41.46256       -3.50488       92.48595
C         41.84727       -3.85640       93.84630
C         42.12564       -5.34689       93.94333
O         43.26248       -5.71696       94.20258
C         40.74338       -3.39882       94.82750
C         41.11295       -3.55954       96.30836
C         39.93988       -3.08936       97.18759
C         40.21035       -3.19250       98.69674
N         41.25800       -2.27113       99.14039
H         40.52828       -3.09515       92.32814
H         42.77053       -3.28416       94.09419
H         39.80421       -3.94667       94.61240
H         40.54885       -2.31743       94.64807
H         42.01943       -2.95121       96.50990
H         41.33391       -4.62489       96.53495
H         39.06216       -3.73204       96.95926
H         39.67151       -2.03806       96.94116
H         40.47955       -4.23722       98.96693
H         39.26749       -2.93384       99.22874
H         42.17978       -2.52378       98.72048
H         41.00467       -1.28880       98.88448
H         41.34348       -2.33274      100.18069
N         41.13160       -6.26333       93.74679
C         41.36788       -7.70514       93.81145
C         42.16391       -8.22938       92.61213
O         42.58071       -9.37843       92.65080
C         40.04152       -8.47138       94.02226
C         39.00696       -8.22703       92.95770
O         39.21239       -8.55288       91.80269
O         37.83070       -7.65823       93.28539
H         40.17420       -5.92031       93.58286
H         41.97152       -7.90587       94.72561
H         39.61331       -8.13930       94.99386
H         40.24202       -9.56180       94.10088
N         42.44029       -7.44228       91.53083
C         43.30474       -7.82997       90.42481
C         42.81200       -8.94765       89.52212
O         43.53559       -9.24601       88.58229
H         42.08682       -6.47918       91.51016
H         44.30077       -8.10900       90.83240
H         43.45062       -6.94191       89.77358
N         41.64481       -9.62865       89.72198
C         41.23174      -10.75255       88.88077
C         39.82977      -10.57620       88.31517
O         39.12946       -9.63445       88.66012
C         41.29936      -12.04649       89.71752
C         42.71579      -12.33867       90.14682
N         43.05324      -12.37723       91.45620
O         43.56969      -12.54553       89.29703
H         41.05569       -9.39670       90.52677
H         41.91219      -10.86218       88.00780
H         40.94424      -12.91947       89.13048
H         40.63328      -11.93938       90.60253
H         42.35179      -12.20283       92.18997
H         44.02470      -12.57716       91.73731
N         39.36904      -11.49308       87.41533
C         38.03447      -11.51274       86.84177
C         37.71269      -10.27206       86.04719
O         38.47894       -9.90545       85.16699
H         40.00298      -12.25291       87.12410
H         37.28462      -11.67485       87.64564
H         37.97067      -12.37862       86.14714
N         36.54285       -9.60872       86.27155
C         36.13981       -8.41680       85.53047
C         37.00868       -7.22597       85.92123
O         37.91025       -7.37538       86.73191
C         34.61718       -8.15415       85.69824
C         33.79258       -9.07415       84.80788
C         33.76382      -10.47050       84.98930
C         33.04682       -8.51865       83.74825
C         33.01923      -11.28438       84.12737
C         32.30560       -9.33426       82.88945
C         32.29198      -10.72181       83.07438
O         31.58789      -11.52166       82.24774
H         35.90156       -9.98360       86.98640
H         36.30752       -8.57477       84.44058
H         34.39511       -7.11730       85.37849
H         34.29993       -8.22679       86.75802
H         34.31184      -10.94461       85.78724
H         33.04522       -7.44981       83.57368
H         33.01149      -12.35700       84.27570
H         31.74696       -8.88562       82.07721
H         31.07879      -11.17141       81.50241
N         36.82472       -6.02184       85.29972
C         37.70809       -4.86220       85.40131
C         37.81724       -4.28208       86.80823
O         38.22371       -4.98326       87.72137
C         39.13458       -5.18259       84.84365
C         39.95342       -3.86333       84.72705
C         39.04127       -5.89273       83.47664
C         41.39361       -4.04661       84.25085
H         36.05599       -5.93542       84.61957
H         37.28636       -4.08074       84.72824
H         39.65573       -5.87352       85.54241
H         40.01256       -3.37341       85.72155
H         39.43737       -3.16540       84.03078
H         40.04537       -6.17123       83.10043
H         38.48145       -6.84695       83.56326
H         38.53380       -5.24727       82.72952
H         41.89774       -3.05679       84.23580
H         41.94469       -4.71748       84.94214
H         41.43447       -4.45133       83.22005
N         37.63620       -2.94554       87.01019
C         38.10287       -2.28620       88.22776
C         37.27938       -2.57105       89.47245
O         37.75058       -2.21215       90.54362
C         38.21005       -0.76527       88.01465
O         39.12129       -0.47745       86.98490
H         37.34366       -2.36491       86.20934
H         39.13608       -2.65208       88.42151
H         38.58289       -0.27252       88.93710
H         37.20862       -0.32425       87.80128
H         38.59980       -0.37097       86.14756
N         36.04364       -3.15209       89.44063
C         35.27659       -3.34660       90.66942
C         35.97519       -4.38966       91.56799
O         35.88825       -5.67356       91.01695
C         33.82922       -3.74632       90.36630
H         35.62216       -3.39867       88.53322
H         35.23138       -2.37199       91.19885
H         33.34574       -2.95717       89.75209
H         33.78634       -4.70412       89.80978
H         33.25743       -3.85068       91.31299
N         35.48875       -4.40241       92.95124
C         36.03247       -3.26544       93.73035
C         34.88808       -2.32627       94.08043
O         33.94040       -2.81368       94.68162
C         36.67699       -3.75336       95.04072
H         35.81045       -5.30645       93.37214
H         36.86214       -2.77890       93.18543
H         35.93870       -4.28365       95.67884
H         37.51188       -4.45022       94.81842
H         37.08839       -2.89272       95.60930
N         34.84955       -0.98543       93.80948
C         35.86301       -0.18346       93.13091
C         35.23230        0.53077       91.95057
O         35.67731        0.32973       90.82848
C         36.47563        0.83242       94.11592
C         37.20769        0.12444       95.26643
C         37.82143        1.11589       96.21071
O         39.02798        1.12282       96.39570
O         37.04112        1.99165       96.87278
H         34.02086       -0.47526       94.15350
H         36.69667       -0.79120       92.74274
H         35.68086        1.48954       94.53214
H         37.20709        1.46878       93.56928
H         38.00313       -0.53069       94.84574
H         36.49646       -0.50571       95.84073
N         34.18394        1.38384       92.12732
C         33.55649        2.07445       91.02229
H         32.72227        2.70588       91.39645
H         34.29614        2.72762       90.51297
H         33.14672        1.33866       90.29813
H         33.81077        1.55128       93.07320
Ca        38.04584       -6.06202       90.51314
O         36.40195       -9.13950       90.62867
H         35.58431       -9.06416       90.07586
H         36.11827       -9.66067       91.42144
O         35.38264       -6.70338       88.51909
H         35.27279       -5.86675       88.00188
H         34.47411       -6.91087       88.85359

Ca 1.0



