%chk=apoCaM-CA-Ng.loop3.water6.frame470.chk
%nprocshared=20
%mem=10GB
%nosave
#b3lyp/svp scf=(tight,noincore,xqc) Test 
#IOP(5/87=12) Density=Current Pop=(MK,readradii) iop(6/33=2) iop(6/42=6)

apoCaM-CA-Ng.loop3.water6.frame470 

   0  1 
C         43.11090       40.14049      118.32377
C         42.36035       39.75500      119.56276
O         41.51094       40.51200      120.00982
H         44.19583       40.19950      118.55386
H         42.94775       39.37565      117.53576
H         42.77184       41.12813      117.94544
N         42.64717       38.57598      120.18301
C         42.01127       38.10638      121.40765
C         42.26879       39.09641      122.53356
O         41.33213       39.55815      123.17194
C         40.51134       37.80138      121.15652
C         39.80980       37.13008      122.31191
O         40.46279       36.82670      123.45141
O         38.62770       36.84429      122.20850
H         43.38327       37.97790      119.77606
H         42.50030       37.14616      121.68789
H         40.43434       37.11670      120.28387
H         39.96870       38.73783      120.90922
N         43.54784       39.48353      122.80757
C         43.89614       40.40560      123.87981
C         44.39224       41.70496      123.27743
O         45.53212       42.10073      123.48005
C         44.92309       39.75659      124.82655
C         44.40731       38.43161      125.40608
C         45.41492       37.84135      126.40052
C         45.03329       36.42953      126.87658
N         43.74722       36.39335      127.57438
H         44.31406       39.11710      122.22154
H         43.00309       40.66244      124.49267
H         45.13274       40.46632      125.65775
H         45.87044       39.56273      124.27653
H         44.25359       37.71033      124.57411
H         43.43605       38.60749      125.91618
H         45.51577       38.52290      127.27375
H         46.40701       37.76300      125.90442
H         45.82978       36.07280      127.56647
H         45.00218       35.73874      126.00481
H         42.96620       36.62779      126.92122
H         43.58685       35.42407      127.93230
H         43.75372       37.05677      128.38236
N         43.52152       42.44432      122.54235
C         43.81498       43.74169      121.95288
C         42.97208       44.76647      122.69955
O         41.80807       44.49106      122.94868
C         43.52477       43.65325      120.43624
C         43.88641       44.90644      119.69000
O         44.87012       44.90678      118.77431
O         43.27733       45.93808      119.88796
H         42.56076       42.08295      122.42622
H         44.88950       44.00650      122.06834
H         42.45677       43.40554      120.24787
H         44.14402       42.82618      120.02362
N         43.51139       45.92371      123.18612
C         42.75831       46.83422      124.04645
C         41.54924       47.49539      123.39607
O         40.75929       48.08420      124.11926
H         44.50384       46.13415      123.00080
H         43.42541       47.63669      124.42873
H         42.40794       46.24608      124.92206
N         41.35043       47.46791      122.04985
C         40.19347       48.03186      121.35813
C         39.46119       46.94976      120.54981
O         38.53258       47.28085      119.82756
C         40.65583       49.18126      120.43366
C         41.27352       50.32319      121.21249
N         40.70355       51.55202      121.21205
O         42.30032       50.13963      121.84847
H         42.06878       47.03920      121.46685
H         39.46102       48.46130      122.07700
H         39.77109       49.56718      119.88450
H         41.38679       48.80897      119.68298
H         39.83644       51.73709      120.68735
H         41.12845       52.32481      121.74657
N         39.80131       45.62954      120.64850
C         39.16682       44.53713      119.92929
C         39.62185       44.40898      118.48978
O         39.19793       43.47004      117.83327
H         40.52397       45.35404      121.30680
H         38.06133       44.61353      120.01068
H         39.47360       43.58550      120.41739
N         40.48150       45.30230      117.92745
C         40.93527       45.22319      116.54612
C         41.45520       46.58748      116.15569
O         42.45069       47.04337      116.69980
C         41.98904       44.10872      116.36500
C         42.69191       44.18383      115.02601
C         41.97582       44.11299      113.81908
C         44.08812       44.35012      114.98341
C         42.64560       44.21990      112.59434
C         44.75407       44.44963      113.76016
C         44.03432       44.38967      112.56043
O         44.66538       44.49650      111.37361
H         40.78823       46.11171      118.48291
H         40.05951       45.00602      115.89625
H         41.50618       43.11589      116.48802
H         42.74472       44.21019      117.17182
H         40.90088       43.98881      113.82462
H         44.66514       44.40670      115.89804
H         42.08442       44.17557      111.66977
H         45.82901       44.57791      113.74608
H         45.62346       44.62187      111.31062
N         40.73332       47.33184      115.27579
C         40.99556       48.73454      115.02762
C         40.11023       49.52415      115.97387
O         40.62862       50.34685      116.71646
C         40.72224       49.09976      113.54167
C         41.40929       48.13539      112.53765
C         41.12263       50.56241      113.26177
C         42.93217       48.04926      112.65077
H         39.85540       46.93923      114.90446
H         42.05988       48.97510      115.24899
H         39.62956       49.00597      113.35195
H         41.14673       48.45087      111.50412
H         41.00050       47.11141      112.67768
H         40.57642       51.26195      113.92467
H         42.20633       50.72376      113.43635
H         40.88213       50.83294      112.21211
H         43.22780       47.66446      113.64760
H         43.31277       47.34115      111.88487
H         43.40709       49.03447      112.47127
N         38.76398       49.28253      116.04393
C         37.88747       50.00838      116.95704
C         37.74262       51.46184      116.53992
O         37.30791       52.26173      117.35534
C         36.49704       49.35896      117.03197
O         36.60165       48.01914      117.43785
H         38.35686       48.54093      115.45463
H         38.34096       49.95880      117.97196
H         36.00648       49.38682      116.03581
H         35.84024       49.92808      117.73189
H         36.45080       47.99879      118.41856
N         38.09082       51.86894      115.28000
C         38.06755       53.23887      114.77676
C         39.14574       54.13199      115.38859
O         39.30860       55.24537      114.90794
C         36.66478       53.85204      114.88256
H         38.37988       51.15700      114.59584
H         38.31599       53.18106      113.69260
H         36.35609       53.99627      115.93720
H         36.63976       54.84173      114.38081
H         35.92681       53.18858      114.38202
N         39.93772       53.72193      116.42175
C         41.02903       54.51594      116.96620
C         42.18430       54.54800      115.98945
O         42.61459       53.48716      115.55725
C         41.52191       53.89569      118.27966
H         39.78016       52.80588      116.85218
H         40.66956       55.53835      117.21915
H         41.88686       52.85983      118.11898
H         42.34614       54.50816      118.70457
H         40.69124       53.86885      119.01687
N         42.77066       55.72851      115.63931
C         43.94309       55.83389      114.77446
C         43.60953       55.35656      113.37327
O         44.23812       54.43494      112.86829
C         45.16783       55.08871      115.37939
C         45.53736       55.55405      116.79736
C         45.95947       56.99429      116.83430
O         45.28152       57.87708      117.59175
O         46.92760       57.36800      116.19117
H         42.39298       56.60367      116.03327
H         44.21870       56.90829      114.68766
H         46.04873       55.22667      114.71412
H         44.96937       53.99837      115.42589
H         46.38183       54.93431      117.16903
H         44.67477       55.39352      117.47952
N         42.61503       55.96715      112.67482
C         42.26233       55.56720      111.33051
H         41.43110       56.19984      110.95359
H         43.13707       55.69152      110.65670
H         41.93601       54.50559      111.32350
H         42.09478       56.74508      113.10851
Ca        45.28724       46.90539      117.80355
O         44.86509       48.68521      120.93943
H         45.54642       48.76117      121.65373
H         44.75543       49.61066      120.60571
O         45.09445       49.04523      115.50976
H         44.60940       49.80410      115.09847
H         45.28709       48.43320      114.75616
O         47.36256       45.86612      115.93046
H         47.72846       46.61550      116.46447
H         46.56859       46.24973      115.48012
O         43.86535       50.22076      118.08767
H         43.43627       51.03961      118.44047
H         43.13979       49.74327      117.61357
O         47.02413       49.77816      117.95594
H         46.93620       49.96073      118.92514
H         47.90724       49.33985      117.86448
O         47.53214       47.10157      120.07589
H         47.92820       46.55728      119.34973
H         46.85345       46.50973      120.48799

Ca 1.0



