%chk=apoCaM-CA-Ng.loop2.water3.frame41.chk
%nprocshared=20
%mem=10GB
%nosave
#b3lyp/svp scf=(tight,noincore,xqc) Test 
#IOP(5/87=12) Density=Current Pop=(MK,readradii) iop(6/33=2) iop(6/42=6)

apoCaM-CA-Ng.loop2.water3.frame41 

   -2  1 
C         56.06293       35.77971       55.41504
C         56.99266       35.32100       56.50323
O         58.18536       35.21444       56.25693
H         55.01222       35.83296       55.77272
H         56.36505       36.78817       55.06366
H         56.10508       35.06842       54.56360
N         56.50960       35.02566       57.74215
C         57.34657       34.56026       58.84409
C         58.02213       33.24953       58.48442
O         59.23119       33.14370       58.62209
C         56.48907       34.38013       60.11552
C         57.32259       33.97617       61.30118
O         58.21930       34.70282       61.69956
O         57.07928       32.81201       61.93254
H         55.49649       35.13582       57.90764
H         58.11671       35.33326       59.06672
H         55.70247       33.61457       59.93635
H         55.98554       35.34092       60.35900
N         57.28293       32.21421       57.99864
C         57.80556       30.90433       57.63564
C         58.91859       30.97715       56.59446
O         59.92266       30.29404       56.74791
C         58.22580       30.12905       58.89476
H         56.27185       32.36367       57.85710
H         56.96649       30.33856       57.17258
H         58.53462       29.09533       58.62885
H         59.07154       30.63308       59.40825
H         57.37092       30.06284       59.60108
N         58.79775       31.77605       55.49002
C         59.75204       31.79383       54.37474
C         61.18945       32.13494       54.79445
O         62.09958       31.90151       54.01190
C         59.70518       30.41271       53.67662
C         60.29430       30.40148       52.28716
O         61.22571       29.66615       52.01253
O         59.67716       31.06573       51.30052
H         57.96117       32.37398       55.40745
H         59.39830       32.54660       53.64042
H         58.64337       30.10157       53.55892
H         60.20979       29.65146       54.30886
N         61.47839       32.63950       56.02747
C         62.82530       32.73245       56.56485
C         63.76968       33.59447       55.76689
O         64.79659       33.08563       55.33846
H         60.71342       32.90462       56.65833
H         63.24282       31.70368       56.63643
H         62.77490       33.14172       57.59728
N         63.52413       34.92034       55.57789
C         64.48816       35.82345       54.95143
C         64.92307       36.88615       55.95142
O         64.46202       36.87628       57.08568
C         63.91862       36.42032       53.64909
C         63.73156       35.33928       52.61086
N         64.50175       35.31294       51.49638
O         62.89421       34.46780       52.78570
H         62.64056       35.31761       55.93386
H         65.42053       35.28133       54.67443
H         64.64495       37.15422       53.24448
H         62.96366       36.95820       53.82886
H         65.22767       36.02581       51.33220
H         64.39217       34.56005       50.80270
N         65.86351       37.80913       55.60406
C         66.45180       38.75922       56.53259
C         66.14553       40.17951       56.13320
O         66.33004       40.52929       54.97501
H         66.23305       37.81323       54.64188
H         67.55212       38.61070       56.50673
H         66.12351       38.58110       57.57934
N         65.72988       41.08059       57.07101
C         65.46825       42.48188       56.75052
C         64.17481       42.66315       55.95940
O         63.96809       43.74638       55.43371
C         65.50281       43.39120       58.01280
C         64.45916       43.04813       59.08765
O         66.79166       43.40203       58.57659
H         65.67290       40.76320       58.04874
H         66.30326       42.83657       56.10407
H         65.29432       44.43117       57.67885
H         66.98180       42.49619       58.93335
H         64.62055       42.03862       59.51665
H         64.52831       43.78212       59.91806
H         63.43976       43.09767       58.66910
N         63.26183       41.65459       55.83392
C         62.05586       41.74337       55.00810
C         62.10593       40.64599       53.94791
O         63.07301       39.89814       53.91324
C         60.76627       41.68801       55.89353
C         60.62977       40.35856       56.68272
C         60.72333       42.91547       56.82263
C         59.32523       40.25136       57.47976
H         63.42670       40.76702       56.32757
H         62.02388       42.70897       54.45766
H         59.88595       41.77756       55.22189
H         61.47684       40.23262       57.38903
H         60.64450       39.51387       55.96171
H         59.76023       42.98255       57.36693
H         61.54151       42.87350       57.56311
H         60.82160       43.85103       56.23189
H         58.44788       40.36977       56.80917
H         59.26878       39.25474       57.96585
H         59.27844       41.01255       58.28536
N         61.08206       40.47640       53.06000
C         61.05714       39.39422       52.07800
C         60.78384       39.91913       50.65304
O         60.58325       39.11663       49.75187
C         60.03842       38.35312       52.59307
C         60.13215       36.98989       51.95953
O         59.35352       36.00150       52.43630
O         60.93746       36.74469       51.07504
H         60.25074       41.08073       53.12959
H         62.03701       38.86910       52.05856
H         59.00489       38.74862       52.52476
H         60.26296       38.17429       53.66914
N         60.83589       41.25547       50.36329
C         60.66531       41.82734       49.02276
C         59.21872       41.70559       48.53803
O         58.33825       42.13870       49.26916
C         61.01837       43.33376       49.06523
C         60.88670       43.99475       47.71188
C         61.80589       43.72493       46.68254
C         59.82824       44.88623       47.46916
C         61.66312       44.33772       45.43231
C         59.68368       45.48776       46.21687
C         60.60104       45.21593       45.19941
H         61.07689       41.90928       51.12200
H         61.38411       41.33766       48.33304
H         62.05293       43.48915       49.44245
H         60.32999       43.82111       49.79061
H         62.63201       43.04430       46.84780
H         59.10417       45.10232       48.24456
H         62.37390       44.13116       44.64240
H         58.85818       46.16374       46.03628
H         60.48759       45.68594       44.23109
N         58.88251       41.21180       47.30082
C         57.51722       41.14038       46.78175
C         56.57203       40.45480       47.73546
O         55.47761       40.93966       47.98300
C         57.66417       40.28727       45.51232
C         59.02553       40.70566       45.02199
C         59.83074       40.71916       46.31955
H         57.16329       42.16533       46.53049
H         57.75362       39.20729       45.77480
H         56.83068       40.39887       44.78628
H         59.45798       40.07874       44.21381
H         58.93223       41.75318       44.65211
H         60.16545       39.70418       46.62744
H         60.69991       41.38390       46.16251
N         56.98965       39.31588       48.33746
C         56.21828       38.53193       49.28605
C         55.79065       39.39689       50.45510
O         54.59789       39.48931       50.71061
C         57.09580       37.36238       49.75907
C         57.44533       36.40601       48.59711
C         58.52051       35.47845       49.04185
O         59.58746       35.40547       48.45105
O         58.28735       34.74643       50.13398
H         57.95173       39.01435       48.12399
H         55.30955       38.12044       48.79107
H         56.58940       36.78595       50.56557
H         58.03225       37.78945       50.18088
H         57.80525       36.93046       47.69020
H         56.53692       35.83069       48.31518
N         56.71044       40.08828       51.18490
C         56.36075       40.97078       52.27975
H         55.26597       41.00739       52.46360
H         56.86282       40.62724       53.20747
H         56.70554       41.99918       52.04204
H         57.70818       40.00939       50.94164
Ca        59.57631       33.27556       51.15993
O         62.84674       35.02746       48.65782
H         63.60341       34.41793       48.46621
H         62.82347       35.64361       47.88353
O         63.08617       32.11503       50.57627
H         63.81893       31.89741       49.94688
H         63.50878       32.07440       51.47062
O         60.98030       32.32612       48.19869
H         60.80595       31.37795       48.42475
H         60.24102       32.57639       47.58944

Ca 1.0



