%chk=apoCaM-CA-Ng.loop2.water5.frame1261.chk
%nprocshared=20
%mem=10GB
%nosave
#b3lyp/svp scf=(tight,noincore,xqc) Test 
#IOP(5/87=12) Density=Current Pop=(MK,readradii) iop(6/33=2) iop(6/42=6)

apoCaM-CA-Ng.loop2.water5.frame1261 

   -2  1 
C         45.83741       50.46790       19.18572
C         45.39333       51.10802       17.89373
O         44.95514       50.38537       17.01150
H         46.91545       50.68038       19.35709
H         45.24065       50.85829       20.03671
H         45.70545       49.36649       19.14911
N         45.49270       52.45117       17.66350
C         46.00927       53.40412       18.63671
C         47.43477       53.81985       18.32985
O         47.89769       53.65743       17.21363
C         45.01776       54.55612       18.90637
C         44.53925       55.46976       17.78984
O         43.72253       56.32430       18.09544
O         44.91568       55.41728       16.49078
H         45.20813       52.79874       16.73955
H         46.10679       52.89603       19.61490
H         45.45070       55.20330       19.70015
H         44.10021       54.08667       19.32510
N         48.23684       54.21819       19.36007
C         49.66270       54.51494       19.26955
C         49.91503       55.78395       18.48512
O         50.74455       55.80128       17.58555
C         50.46282       53.30289       18.75514
H         47.82048       54.27474       20.30267
H         50.01774       54.72389       20.30326
H         51.55185       53.51713       18.79009
H         50.25984       52.41553       19.39136
H         50.20248       53.05108       17.70647
N         49.21161       56.90597       18.80183
C         49.41034       58.19889       18.16382
C         49.54388       59.26079       19.22314
O         48.68940       59.33729       20.09754
C         48.21165       58.58754       17.28359
C         47.98744       57.60442       16.17900
O         48.11118       57.94202       15.01306
O         47.62747       56.34663       16.47187
H         48.47643       56.83403       19.52256
H         50.30451       58.19306       17.49936
H         48.42989       59.58380       16.83468
H         47.28190       58.67179       17.88604
N         50.53007       60.19016       19.14839
C         50.57857       61.33045       20.03968
C         49.29465       62.12667       19.94876
O         48.67702       62.37181       20.97535
H         51.22726       60.13489       18.39013
H         51.42304       61.98685       19.73686
H         50.75627       60.99608       21.08540
N         48.84296       62.56818       18.73936
C         47.68433       63.44674       18.58591
C         46.61775       62.87930       17.65692
O         46.82423       61.84809       17.03222
C         48.20663       64.80341       18.07198
C         48.91257       64.65929       16.74003
N         50.26012       64.76428       16.66032
O         48.26615       64.40930       15.73351
H         49.38789       62.32322       17.89802
H         47.19778       63.61398       19.57134
H         48.92745       65.17426       18.83323
H         47.39913       65.56146       17.98951
H         50.82837       64.93432       17.50303
H         50.74233       64.63559       15.75851
N         45.43259       63.54206       17.52439
C         44.38517       63.13940       16.59329
C         43.18899       64.07304       16.72222
O         43.41134       65.27449       16.66128
H         45.28457       64.38010       18.10833
H         44.12565       62.08531       16.78500
H         44.78455       63.21999       15.55964
N         41.89746       63.66979       16.92904
C         41.37748       62.30246       16.89330
C         40.24607       62.20740       15.86359
O         39.96749       63.18092       15.17759
C         40.94618       61.86148       18.31629
C         42.16418       61.73424       19.23799
O         40.03117       62.76814       18.87436
H         41.20060       64.41383       17.10061
H         42.13214       61.57528       16.54703
H         40.50448       60.83999       18.29362
H         39.13117       62.50640       18.54871
H         42.88295       60.99612       18.81743
H         42.68231       62.70805       19.35824
H         41.84869       61.36985       20.23848
N         39.56527       61.03733       15.69571
C         38.54854       60.78876       14.67223
C         37.17169       60.71247       15.33281
O         37.04160       59.96792       16.29444
C         38.89262       59.43984       13.95581
C         40.23087       59.57156       13.18178
C         37.75657       58.97469       13.01902
C         40.74630       58.24787       12.60969
H         39.79084       60.24929       16.31921
H         38.55358       61.58847       13.90852
H         39.00587       58.65760       14.74037
H         41.01984       59.94798       13.86683
H         40.11308       60.30721       12.35569
H         36.81110       58.84616       13.58311
H         37.59225       59.70007       12.19692
H         37.97455       57.97925       12.58532
H         41.71704       58.42121       12.09939
H         40.90425       57.51392       13.42835
H         40.05088       57.82027       11.86057
N         36.06045       61.36740       14.85852
C         36.02160       62.21487       13.66618
C         34.59834       62.34782       13.13446
O         33.74040       62.85013       13.84735
C         36.56059       63.63096       13.99135
C         36.62484       64.56113       12.79971
O         36.32497       64.18495       11.67695
O         37.02509       65.83369       12.97943
H         35.16667       61.17266       15.33697
H         36.63060       61.74815       12.86618
H         37.57661       63.57051       14.41921
H         35.90348       64.09428       14.75989
N         34.29879       61.96700       11.85471
C         33.01165       62.25115       11.22291
C         32.95803       61.67019        9.80665
O         33.83109       62.00036        9.01571
C         32.82207       63.78636       11.08528
C         31.53954       64.11945       10.35738
C         31.58549       64.65312        9.05710
C         30.29300       63.86958       10.95301
C         30.40341       64.91669        8.36076
C         29.11207       64.14064       10.25498
C         29.16736       64.65999        8.95859
H         35.03168       61.50560       11.29408
H         32.20564       61.83054       11.85452
H         33.68991       64.17964       10.50998
H         32.82503       64.30411       12.06579
H         32.53532       64.84482        8.57316
H         30.23734       63.45869       11.95335
H         30.44691       65.31372        7.35476
H         28.15386       63.94185       10.71653
H         28.25308       64.86177        8.41611
N         31.93005       60.87378        9.37069
C         30.79951       60.42691       10.16729
C         31.14631       59.21453       11.01848
O         30.25396       58.70940       11.68377
C         29.75294       60.08664        9.09840
C         30.61117       59.50014        7.99690
C         31.79430       60.46453        7.98415
H         30.36978       61.22268       10.80491
H         28.90673       59.45371        9.44200
H         29.33205       61.04246        8.70682
H         30.96670       58.50550        8.34850
H         30.11260       59.37096        7.01263
H         32.69681       59.95358        7.58567
H         31.56941       61.37175        7.37971
N         32.40180       58.67237       11.02215
C         32.74954       57.45108       11.73769
C         33.15620       56.38573       10.72362
O         33.52412       56.74573        9.61347
C         33.92081       57.73274       12.70686
C         33.56927       58.72018       13.83674
C         32.62358       58.16888       14.87385
O         32.19896       57.02624       14.80864
O         32.27190       58.94140       15.91852
H         33.14751       59.10290       10.45889
H         31.86158       57.08652       12.28567
H         34.75474       58.16894       12.11179
H         34.29709       56.79204       13.16341
H         33.14797       59.65334       13.40600
H         34.50601       58.98203       14.37015
N         33.09810       55.04480       10.97561
C         32.63733       54.42738       12.20317
H         31.74385       53.80590       11.97968
H         33.43561       53.77298       12.60692
H         32.36349       55.14722       12.99137
H         33.37625       54.40028       10.21926
Ca        46.30204       54.27780       15.10841
O         49.59726       54.04219       14.70155
H         50.49073       54.14437       14.28836
H         49.54626       54.77959       15.35922
O         44.48687       54.27486       12.72097
H         44.55873       53.28834       12.76829
H         43.62899       54.48332       13.16923
O         45.38451       57.31818       13.96523
H         44.40181       57.22344       14.03773
H         45.52186       57.91326       13.18590
O         46.72395       51.39362       14.59394
H         47.50435       51.74683       15.09105
H         46.72097       51.90057       13.74320
O         47.79722       55.00945       12.16920
H         48.53752       55.58531       11.85151
H         47.25950       54.82624       11.35813

Ca 1.0



