%chk=apoCaM-CA-Ng.loop3.water5.frame442.chk
%nprocshared=20
%mem=10GB
%nosave
#b3lyp/svp scf=(tight,noincore,xqc) Test 
#IOP(5/87=12) Density=Current Pop=(MK,readradii) iop(6/33=2) iop(6/42=6)

apoCaM-CA-Ng.loop3.water5.frame442 

   0  1 
C        100.65253       58.70974       84.78538
C        100.30747       57.26976       85.03085
O         99.13089       56.94297       85.00671
H        101.74897       58.87834       84.82390
H        100.28284       59.01423       83.78342
H        100.16842       59.34444       85.55729
N        101.28820       56.34715       85.26888
C        101.05038       54.92185       85.50267
C        100.33500       54.65375       86.83725
O         99.98309       53.51177       87.09535
C        100.32697       54.30869       84.27291
C        100.36269       52.80182       84.19410
O         99.82169       52.24269       83.25383
O        101.01818       52.05996       85.10808
H        102.27006       56.66270       85.25865
H        102.04555       54.42835       85.56736
H        100.83323       54.67381       83.35212
H         99.26952       54.64280       84.24392
N        100.13497       55.64188       87.76112
C         99.47914       55.43800       89.05467
C         98.22729       56.29809       89.18526
O         97.56992       56.22528       90.21406
C        100.46719       55.79788       90.18075
C        101.71496       54.89940       90.14755
C        102.77987       55.28145       91.18752
C        103.35880       56.68794       90.94779
N        104.49885       56.94613       91.82477
H        100.48975       56.59004       87.57069
H         99.16132       54.37933       89.17975
H         99.97852       55.68660       91.17409
H        100.74932       56.86238       90.04557
H        102.19123       54.94301       89.14498
H        101.39747       53.84925       90.33138
H        103.60403       54.54135       91.09330
H        102.36466       55.20971       92.21672
H        102.58096       57.45892       91.13410
H        103.69555       56.77496       89.89076
H        104.85052       57.91502       91.64760
H        104.21325       56.86347       92.82701
H        105.26753       56.26800       91.61612
N         97.83225       57.13368       88.18271
C         96.64791       57.97398       88.23810
C         95.41250       57.09746       88.40199
O         95.25959       56.13302       87.66577
C         96.60780       58.85431       86.96363
C         95.53440       59.89645       87.01595
O         95.84416       61.20313       87.03873
O         94.36549       59.57197       87.04283
H         98.39264       57.18660       87.32754
H         96.74175       58.67121       89.10123
H         96.49142       58.23040       86.05104
H         97.58001       59.39166       86.88935
N         94.49802       57.37618       89.37276
C         93.31920       56.56913       89.65895
C         92.42782       56.35020       88.45404
O         92.00887       55.22182       88.23812
H         94.63974       58.21654       89.95343
H         92.73139       57.08511       90.44877
H         93.62854       55.58171       90.06760
N         92.12649       57.37206       87.60512
C         91.29516       57.21436       86.41124
C         92.10853       57.21186       85.11336
O         91.51097       57.07353       84.05520
C         90.15410       58.25573       86.42370
C         90.56894       59.70701       86.33862
N         89.62366       60.66980       86.40321
O         91.73987       60.02671       86.21071
H         92.53918       58.29043       87.80009
H         90.80036       56.21887       86.42988
H         89.58407       58.11786       87.36840
H         89.46530       58.04935       85.57645
H         88.62910       60.42232       86.50936
H         89.88782       61.66314       86.34485
N         93.47224       57.27772       85.11733
C         94.30105       57.03915       83.94441
C         94.74191       58.29554       83.23254
O         95.53048       58.17509       82.30489
H         93.96518       57.33765       86.01135
H         93.79634       56.35142       83.23156
H         95.22051       56.51520       84.28652
N         94.26820       59.52672       83.56889
C         94.67045       60.74125       82.86868
C         93.73049       61.86533       83.23491
O         93.56258       62.15909       84.41063
C         96.13625       61.12300       83.17928
C         96.57022       62.34912       82.39995
C         96.55634       62.34206       80.99291
C         96.99301       63.51008       83.06941
C         96.94693       63.47468       80.27309
C         97.38692       64.64190       82.34671
C         97.36318       64.62742       80.94468
O         97.73867       65.71023       80.23400
H         93.55387       59.59591       84.30767
H         94.57178       60.55564       81.77722
H         96.81543       60.28892       82.90685
H         96.24131       61.29632       84.27256
H         96.24132       61.46135       80.44897
H         97.01935       63.54108       84.14995
H         96.92665       63.45511       79.19057
H         97.71001       65.52912       82.87676
H         98.03685       66.52760       80.65785
N         93.06963       62.53615       82.25528
C         92.04846       63.52778       82.54112
C         90.82217       62.78187       83.04145
O         90.30559       63.12143       84.09476
C         91.72197       64.39628       81.28725
C         92.99120       65.02219       80.63415
C         90.72245       65.52058       81.64153
C         93.81610       65.93685       81.54840
H         93.27066       62.29856       81.27255
H         92.42015       64.23492       83.31593
H         91.25305       63.74409       80.51686
H         92.68058       65.60693       79.74104
H         93.66504       64.22199       80.26657
H         90.46366       66.10368       80.73231
H         89.78436       65.13234       82.06822
H         91.13798       66.20824       82.40463
H         93.22518       66.80871       81.89313
H         94.20275       65.38003       82.42652
H         94.68821       66.32671       80.98326
N         90.32827       61.71107       82.34217
C         89.15998       60.95435       82.78754
C         87.87291       61.75999       82.66415
O         86.84892       61.29369       83.14467
C         89.04036       59.61588       82.04271
O         88.83485       59.82697       80.67401
H         90.82774       61.40069       81.49490
H         89.31528       60.69534       83.85389
H         88.18739       59.03926       82.46940
H         89.97768       59.03484       82.19955
H         88.72725       58.92429       80.27514
N         87.85672       62.99248       82.07146
C         86.70961       63.88759       82.04036
C         86.19638       64.09545       83.45499
O         85.03344       63.83149       83.72779
C         85.64512       63.36248       81.07029
H         88.71653       63.35361       81.65040
H         87.04772       64.87102       81.64206
H         84.80624       64.08699       81.00133
H         86.09085       63.25104       80.05794
H         85.25016       62.37826       81.39473
N         87.06350       64.49569       84.42885
C         86.71692       64.53887       85.84223
C         86.99272       65.90154       86.43183
O         88.11075       66.38525       86.32086
C         87.54301       63.49058       86.58599
H         88.04156       64.69675       84.16729
H         85.64981       64.27129       86.00177
H         87.32707       62.48513       86.16739
H         88.62899       63.69985       86.48559
H         87.27585       63.48623       87.66477
N         86.01369       66.55312       87.12725
C         86.18770       67.81783       87.83825
C         86.38200       69.00990       86.89845
O         86.49280       70.12202       87.39321
C         87.32080       67.66708       88.89662
C         87.37112       68.75978       89.97967
C         86.12854       68.76139       90.82586
O         85.43180       69.76068       90.89599
O         85.78511       67.65991       91.52200
H         85.09385       66.09556       87.21892
H         85.23838       68.00338       88.38746
H         88.30807       67.63315       88.39156
H         87.18308       66.69763       89.42568
H         87.53974       69.75772       89.52921
H         88.23442       68.55394       90.64842
N         86.38906       68.87535       85.53776
C         86.55368       69.99067       84.62653
H         87.44802       69.81657       83.99253
H         85.65936       70.06434       83.97291
H         86.68230       70.95928       85.15318
H         86.25972       67.95505       85.09936
Ca        94.08345       62.59298       87.23726
O         95.24874       64.86317       85.81690
H         94.74152       65.26204       86.56801
H         96.00655       64.39670       86.25208
O         90.83196       62.19982       88.90014
H         90.28090       61.39159       89.05237
H         90.17892       62.94357       88.87571
O         91.64917       64.16294       86.41042
H         91.50723       64.85325       85.71553
H         91.23894       64.54588       87.22517
O         93.19677       64.33743       89.33062
H         92.88822       65.26319       89.49405
H         92.98338       63.84749       90.16381
O         93.78943       60.93399       89.85895
H         94.52002       60.88644       90.52541
H         92.96242       60.99372       90.39966

Ca 1.0



