%chk=apoCaM-CA-Ng.loop2.water4.frame348.chk
%nprocshared=20
%mem=10GB
%nosave
#b3lyp/svp scf=(tight,noincore,xqc) Test 
#IOP(5/87=12) Density=Current Pop=(MK,readradii) iop(6/33=2) iop(6/42=6)

apoCaM-CA-Ng.loop2.water4.frame348 

   -2  1 
C         70.86915       90.25635       46.72970
C         69.88459       90.98549       47.59569
O         69.97521       90.88662       48.81149
H         71.61561       89.71670       47.35119
H         70.33713       89.51860       46.09564
H         71.40321       90.97769       46.07659
N         68.92342       91.76644       47.02702
C         67.93423       92.51199       47.79596
C         66.55164       92.17927       47.26522
O         66.29002       92.44697       46.09960
C         68.24969       94.01447       47.68262
C         67.39101       94.88930       48.55815
O         67.58160       96.09450       48.56751
O         66.43492       94.36692       49.35161
H         68.91406       91.86011       45.99865
H         68.00418       92.23913       48.87250
H         68.15545       94.34003       46.62355
H         69.30535       94.16832       47.99773
N         65.63049       91.55285       48.05094
C         64.33566       91.09586       47.55452
C         64.29237       89.57793       47.57749
O         65.25051       88.95943       48.02540
C         63.20803       91.71040       48.39179
H         65.87796       91.33208       49.02879
H         64.18503       91.40739       46.49746
H         62.21384       91.38913       48.01509
H         63.29968       91.40787       49.45654
H         63.25211       92.81882       48.32899
N         63.21619       88.90321       47.08496
C         63.14570       87.44824       47.02332
C         62.05808       86.94488       47.93829
O         60.90186       87.30880       47.76390
C         62.88306       86.97548       45.57690
C         64.05973       87.25931       44.69579
O         65.22867       86.69052       45.02029
O         63.96527       87.97355       43.71185
H         62.41064       89.44036       46.72735
H         64.10289       86.98969       47.36024
H         61.96270       87.45067       45.17582
H         62.74152       85.87194       45.57527
N         62.36443       86.06126       48.92801
C         61.35463       85.49442       49.79805
C         61.94706       84.42477       50.68450
O         61.86916       84.52750       51.89989
H         63.34468       85.75704       49.04197
H         60.56942       85.01033       49.17496
H         60.88065       86.30035       50.39938
N         62.50465       83.32327       50.11044
C         62.96617       82.16054       50.86225
C         64.25600       82.44218       51.62452
O         65.25433       82.81217       51.02233
C         63.14300       80.95786       49.91274
C         61.85249       80.56315       49.21514
N         61.83730       79.51529       48.36212
O         60.81517       81.17920       49.41920
H         62.50662       83.27539       49.07877
H         62.16723       81.86248       51.57780
H         63.48031       80.08328       50.50691
H         63.91410       81.19561       49.14788
H         62.69296       78.97477       48.17617
H         60.96309       79.24249       47.88831
N         64.28877       82.26365       52.97480
C         65.43863       82.51796       53.82910
C         66.60697       81.57907       53.60235
O         66.41364       80.37177       53.61515
H         63.42641       81.95287       53.44731
H         65.11655       82.34621       54.87934
H         65.74677       83.58234       53.75072
N         67.87403       82.08203       53.51578
C         69.08623       81.26178       53.49843
C         69.93463       81.52091       52.26261
O         70.40029       80.55578       51.67438
C         69.90974       81.44567       54.80624
C         70.41199       82.86996       55.08877
O         69.17818       80.97137       55.90983
H         67.98653       83.10484       53.55442
H         68.82899       80.17800       53.48912
H         70.81213       80.79910       54.72014
H         68.41848       81.59171       56.06188
H         69.56696       83.57413       55.22660
H         71.01862       82.86651       56.01994
H         71.05628       83.23894       54.27287
N         70.17885       82.78309       51.80418
C         71.01043       83.06916       50.63680
C         70.15768       83.57159       49.48996
O         69.01630       83.96802       49.68356
C         72.13825       84.07323       51.05272
C         73.20234       83.39219       51.95262
C         72.81772       84.82694       49.89247
C         74.06661       82.34137       51.24142
H         69.74363       83.58441       52.28318
H         71.45122       82.13288       50.24108
H         71.64848       84.87382       51.65294
H         72.70902       82.90452       52.81472
H         73.88231       84.17460       52.35381
H         73.57076       85.53788       50.29462
H         73.31743       84.14349       49.17978
H         72.07233       85.43876       49.34289
H         73.45954       81.50062       50.85219
H         74.64081       82.79247       50.40670
H         74.79877       81.92216       51.96150
N         70.66533       83.48508       48.22644
C         69.96848       83.89097       47.02128
C         69.68449       82.66588       46.13275
O         69.26732       82.83295       44.99574
C         70.85959       84.94393       46.31061
C         70.12140       85.76878       45.29606
O         68.78346       85.70031       45.26616
O         70.70744       86.61903       44.64614
H         71.60535       83.07923       48.09867
H         68.99882       84.36351       47.29029
H         71.74205       84.44551       45.86641
H         71.22799       85.67753       47.05987
N         69.83876       81.39540       46.61998
C         69.59275       80.17015       45.85903
C         70.68766       79.95410       44.82967
O         71.84965       80.03767       45.20650
C         69.59295       78.95130       46.81255
C         68.49741       79.05521       47.84783
C         68.81805       79.15598       49.21166
C         67.14561       79.05384       47.46043
C         67.80489       79.26425       50.16879
C         66.13687       79.15920       48.42174
C         66.46705       79.26698       49.77477
H         70.10852       81.27669       47.60615
H         68.58937       80.21279       45.39051
H         70.58724       78.88205       47.30880
H         69.44027       78.01243       46.23562
H         69.85154       79.15699       49.53154
H         66.87127       78.96856       46.41659
H         68.05312       79.34567       51.21747
H         65.10049       79.15687       48.11541
H         65.69086       79.34964       50.52164
N         70.42855       79.60675       43.53008
C         71.47868       79.31817       42.56851
C         72.08708       80.58702       41.99690
O         73.04359       80.48205       41.24162
C         70.75217       78.49435       41.50247
C         69.38867       79.15878       41.48000
C         69.11330       79.36592       42.97064
H         72.28367       78.69540       43.01971
H         71.27395       78.41461       40.52448
H         70.60100       77.46501       41.90200
H         69.51867       80.15661       41.00234
H         68.59150       78.60968       40.93607
H         68.41644       80.22152       43.09894
H         68.69871       78.44851       43.44348
N         71.57705       81.81844       42.28787
C         72.16438       83.04935       41.78521
C         73.50920       83.24611       42.45100
O         74.51102       83.37291       41.76177
C         71.25593       84.26720       42.06830
C         69.85583       84.12173       41.43555
C         68.99403       85.34362       41.60719
O         69.42308       86.35626       42.13667
O         67.72593       85.32156       41.15649
H         70.74210       81.89001       42.88261
H         72.27572       82.98602       40.67865
H         71.75178       85.16869       41.64419
H         71.13865       84.40879       43.16096
H         69.32119       83.27060       41.90509
H         69.95102       83.92107       40.34756
N         73.59011       83.25081       43.81239
C         74.82087       83.42027       44.55392
H         75.69749       83.56726       43.89026
H         74.72604       84.30362       45.21998
H         74.99542       82.52006       45.18041
H         72.73098       83.10604       44.36112
Ca        67.28267       86.94558       44.18609
O         66.68671       89.98801       43.66227
H         65.70512       89.87183       43.64863
H         66.85992       90.52362       44.47489
O         69.61183       89.73433       43.36876
H         69.40802       90.68739       43.54470
H         70.54527       89.73749       43.03976
O         66.53027       88.16803       41.22660
H         66.88078       87.98960       40.31811
H         65.94188       88.95638       41.11500
O         67.97349       88.49330       46.68728
H         67.70972       87.60390       47.03226
H         67.15230       88.85278       46.26841

Ca 1.0



