%chk=apoCaM-CA-Ng.loop2.water3.frame622.chk
%nprocshared=20
%mem=10GB
%nosave
#b3lyp/svp scf=(tight,noincore,xqc) Test 
#IOP(5/87=12) Density=Current Pop=(MK,readradii) iop(6/33=2) iop(6/42=6)

apoCaM-CA-Ng.loop2.water3.frame622 

   -2  1 
C         68.27142       34.60016       89.87862
C         68.38764       35.78260       90.79916
O         67.36291       36.36306       91.12605
H         67.72630       34.92162       88.96311
H         69.26808       34.22717       89.56381
H         67.70330       33.77699       90.35817
N         69.60753       36.23071       91.22201
C         69.77264       37.49996       91.92677
C         68.99219       37.56866       93.22709
O         69.36720       36.93570       94.20200
C         71.26346       37.81874       92.16805
C         71.44927       39.15187       92.84419
O         70.96772       40.16253       92.35732
O         72.14434       39.23421       93.99505
H         70.44910       35.69923       90.94882
H         69.37944       38.28017       91.23949
H         71.78455       37.84255       91.18790
H         71.73307       37.02430       92.79142
N         67.91095       38.39298       93.30317
C         67.10363       38.58272       94.49930
C         66.00339       37.53702       94.58996
O         65.51490       37.11786       93.55002
C         66.47984       39.98087       94.45562
H         67.64642       38.92125       92.45721
H         67.75305       38.56883       95.38951
H         65.93233       40.13960       93.50130
H         65.77185       40.13252       95.29496
H         67.28692       40.74083       94.53262
N         65.47613       37.10665       95.77711
C         65.89615       37.56110       97.10012
C         67.32133       37.21860       97.43895
O         67.87945       36.27748       96.89731
C         65.00406       36.98078       98.21495
C         64.83396       35.46284       98.19261
O         63.68798       35.04146       98.21878
O         65.84508       34.54253       98.25042
H         64.68524       36.45018       95.72358
H         65.79806       38.66944       97.13217
H         63.99343       37.44178       98.10822
H         65.38377       37.30981       99.20765
N         67.95391       37.94786       98.39721
C         69.28838       37.65341       98.86519
C         70.35524       37.92591       97.82775
O         70.03252       38.34858       96.72694
H         67.45357       38.73285       98.84609
H         69.32618       36.60031       99.21150
H         69.49047       38.31599       99.72715
N         71.68028       37.77847       98.11124
C         72.20544       37.34522       99.40519
C         73.23535       36.22370       99.27946
O         73.75338       35.81635      100.31123
C         72.87751       38.56200      100.07682
C         71.90115       39.68126      100.35162
N         71.99391       40.85987       99.69262
O         71.02210       39.52414      101.18582
H         72.35629       38.07156       97.38759
H         71.40306       36.97573      100.07467
H         73.68778       38.92118       99.40604
H         73.33640       38.27470      101.04715
H         72.71978       41.01025       98.97737
H         71.32636       41.62143       99.88620
N         73.65133       35.72233       98.07727
C         74.81080       34.84990       97.98165
C         74.59890       33.42323       98.42976
O         75.59839       32.72570       98.53562
H         73.24544       36.06281       97.19552
H         75.63918       35.31486       98.56221
H         75.15253       34.79363       96.92648
N         73.36301       32.89145       98.66907
C         73.17814       31.47545       98.99560
C         72.19378       30.80680       98.05438
O         71.47029       31.47719       97.33402
C         72.67016       31.31066      100.44360
C         73.66717       31.85172      101.46635
O         71.44045       31.97650      100.58943
H         72.52872       33.49189       98.59348
H         74.14119       30.92767       98.89560
H         72.54840       30.21971      100.65460
H         70.83345       31.36792      101.08700
H         73.23252       31.76518      102.48412
H         74.60822       31.26186      101.43126
H         73.89786       32.91933      101.27065
N         72.07597       29.45210       98.08699
C         71.06753       28.69945       97.36040
C         69.92935       28.38325       98.32825
O         70.12062       27.66648       99.29944
C         71.71190       27.41227       96.76764
C         70.66684       26.39101       96.24297
C         72.75065       27.76182       95.68056
C         71.32225       25.08718       95.78912
H         72.69722       28.92740       98.72023
H         70.65457       29.30218       96.52219
H         72.24590       26.92246       97.61044
H         70.05788       26.80860       95.41482
H         69.97108       26.12893       97.06778
H         72.25957       28.06706       94.73790
H         73.42478       28.58101       96.00161
H         73.38997       26.88223       95.46227
H         71.93102       25.24854       94.87606
H         71.97216       24.69183       96.59955
H         70.54469       24.33241       95.55416
N         68.70331       28.91536       98.08674
C         67.46423       28.64869       98.79195
C         66.37748       28.11147       97.83419
O         65.27724       27.87181       98.31361
C         67.02539       29.93237       99.52953
C         66.94094       31.13264       98.64175
O         67.74486       32.18568       98.88774
O         66.16165       31.15900       97.70285
H         68.63716       29.59182       97.34181
H         67.61663       27.87349       99.57300
H         67.78613       30.15424      100.31003
H         66.04955       29.78352      100.03701
N         66.61238       27.83052       96.50411
C         65.66689       27.06499       95.68436
C         65.79322       27.41060       94.17866
O         66.20895       26.54974       93.41587
C         65.96620       25.56261       95.95289
C         64.85926       24.61499       95.54678
C         64.92064       23.86448       94.35837
C         63.76688       24.43061       96.41394
C         63.89614       22.96219       94.04088
C         62.75620       23.51793       96.10085
C         62.81767       22.78714       94.91311
H         67.56532       27.93409       96.13376
H         64.62368       27.26928       96.01337
H         66.11256       25.40169       97.04392
H         66.93918       25.27798       95.49503
H         65.75382       23.97451       93.67679
H         63.71080       24.97824       97.34659
H         63.94015       22.39014       93.12278
H         61.92881       23.37283       96.78389
H         62.03227       22.08108       94.67345
N         65.44393       28.63103       93.65220
C         65.50478       28.94726       92.21753
C         66.90861       28.99067       91.62888
O         67.05422       28.88715       90.41813
C         64.77820       30.29290       92.09587
C         64.88875       30.90012       93.48771
C         64.85076       29.69711       94.42402
H         64.94182       28.18146       91.64035
H         65.13142       30.96303       91.27815
H         63.70396       30.07121       91.93491
H         65.89682       31.35858       93.57696
H         64.11955       31.67079       93.71579
H         65.41644       29.94165       95.34764
H         63.81364       29.38927       94.67839
N         67.98200       29.12146       92.43763
C         69.37116       29.09310       92.02003
C         69.66682       27.71619       91.44193
O         70.20740       27.61524       90.34867
C         70.30212       29.35738       93.23278
C         70.18817       30.74987       93.94018
C         68.97121       31.06580       94.81274
O         68.55588       32.34882       95.00324
O         68.32238       30.16778       95.29860
H         67.78162       29.20211       93.42204
H         69.57644       29.88378       91.26130
H         71.34130       29.29209       92.83104
H         70.18060       28.54831       93.97614
H         70.32620       31.55980       93.19962
H         71.05947       30.80642       94.62985
N         69.24995       26.60542       92.11444
C         69.40434       25.26048       91.60719
H         70.44962       24.91790       91.74713
H         68.72699       24.57927       92.16800
H         69.11838       25.20976       90.53472
H         68.72931       26.72365       92.99482
Ca        67.19249       33.48450       96.60084
O         69.81788       34.18390       97.45241
H         70.31924       34.75531       96.81971
H         69.86002       33.28224       97.05041
O         67.36733       34.48684       94.16806
H         66.84243       34.86752       93.42887
H         68.24530       34.93209       94.13835
O         64.72132       33.84348       95.48050
H         63.93534       34.26625       95.90147
H         64.56677       33.95422       94.51169

Ca 1.0



