%chk=apoCaM-CA-Ng.loop2.water4.frame250.chk
%nprocshared=20
%mem=10GB
%nosave
#b3lyp/svp scf=(tight,noincore,xqc) Test 
#IOP(5/87=12) Density=Current Pop=(MK,readradii) iop(6/33=2) iop(6/42=6)

apoCaM-CA-Ng.loop2.water4.frame250 

   -2  1 
C         37.79515       13.37439       -6.15099
C         38.91261       12.68490       -6.87765
O         39.64703       13.33677       -7.60634
H         36.82585       12.92353       -6.44548
H         37.93202       13.25454       -5.05555
H         37.77152       14.45816       -6.39357
N         39.10174       11.34643       -6.71480
C         40.18163       10.61102       -7.36561
C         40.07536       10.67972       -8.88620
O         39.09077       10.21940       -9.44753
C         40.24929        9.14325       -6.87681
C         39.04119        8.30341       -7.21515
O         39.16634        7.31567       -7.92105
O         37.82621        8.60907       -6.72154
H         38.47048       10.85282       -6.06742
H         41.13920       11.07942       -7.04617
H         40.38779        9.13308       -5.77390
H         41.15087        8.67438       -7.33058
N         41.08189       11.24580       -9.61335
C         41.08301       11.33875      -11.07179
C         39.91391       12.16972      -11.56534
O         39.73665       13.28635      -11.09870
C         42.39788       11.95517      -11.55965
H         41.89779       11.61678       -9.10199
H         41.03055       10.31335      -11.50135
H         42.41204       11.99255      -12.67018
H         42.52748       12.98295      -11.15918
H         43.25240       11.32861      -11.22367
N         39.08197       11.67757      -12.52804
C         37.87430       12.35659      -12.99112
C         38.02105       12.78621      -14.44989
O         39.03551       12.48784      -15.06657
C         36.70536       11.36330      -12.77849
C         35.33974       11.91873      -13.05529
O         34.63160       11.40922      -13.90932
O         34.88136       12.97008      -12.35061
H         39.30184       10.75915      -12.94529
H         37.69703       13.27539      -12.39123
H         36.71232       11.03089      -11.71986
H         36.87904       10.46521      -13.41360
N         37.03574       13.50176      -15.07017
C         37.08447       13.87569      -16.47363
C         38.08734       14.96107      -16.81019
O         38.22085       15.24490      -17.99200
H         36.18415       13.75270      -14.55233
H         36.08808       14.26341      -16.78033
H         37.28732       12.96439      -17.07697
N         38.80875       15.62926      -15.86055
C         39.75928       16.69100      -16.19328
C         40.47625       17.16646      -14.94197
O         39.81773       17.54865      -13.98315
C         39.06548       17.92328      -16.83978
C         40.05465       18.95408      -17.36189
N         39.61058       20.12570      -17.86869
O         41.25753       18.73539      -17.34263
H         38.68840       15.37136      -14.87027
H         40.49505       16.27941      -16.92022
H         38.39990       18.39849      -16.08614
H         38.43686       17.62956      -17.70261
H         38.60439       20.34203      -17.89338
H         40.28001       20.82327      -18.22844
N         41.83513       17.22844      -14.91211
C         42.59070       17.75100      -13.78739
C         42.28552       19.20629      -13.48080
O         41.42265       19.81369      -14.10009
H         42.36894       16.91016      -15.73526
H         43.67282       17.67906      -14.03184
H         42.39504       17.13435      -12.88440
N         43.00707       19.83367      -12.51437
C         42.79088       21.22157      -12.11587
C         41.41381       21.40084      -11.48594
O         40.70837       22.31983      -11.87858
C         43.94282       21.75369      -11.21239
C         44.16595       21.01215       -9.88564
O         45.14581       21.79756      -11.94260
H         43.75563       19.29113      -12.06141
H         42.83788       21.87071      -13.02057
H         43.69415       22.80698      -10.95453
H         45.44172       20.86597      -12.11328
H         43.26403       21.04473       -9.25249
H         44.45160       19.95391      -10.04796
H         44.99108       21.50563       -9.32875
N         40.94910       20.53408      -10.53918
C         39.62451       20.63455       -9.91964
C         38.75358       19.47182      -10.36268
O         39.18436       18.70172      -11.21213
C         39.75200       20.81982       -8.37322
C         40.47973       19.68710       -7.60054
C         40.45443       22.15984       -8.09398
C         39.72581       18.35827       -7.56591
H         41.54519       19.73665      -10.27209
H         39.08169       21.53247      -10.29012
H         38.73738       20.92687       -7.93488
H         40.57548       20.00693       -6.53989
H         41.50531       19.52829       -7.99348
H         41.49001       22.16370       -8.48245
H         39.89918       22.99287       -8.57638
H         40.48773       22.36255       -7.00310
H         39.66504       17.89800       -8.56782
H         40.26698       17.64456       -6.91000
H         38.70485       18.50672       -7.15107
N         37.49994       19.29039       -9.84987
C         36.58916       18.26579      -10.34490
C         35.23921       18.91599      -10.65238
O         34.19517       18.38684      -10.30238
C         36.58225       17.10979       -9.32698
C         35.89914       15.86473       -9.79391
O         35.01195       15.27685       -8.98090
O         36.20885       15.33579      -10.84940
H         37.16482       19.89956       -9.08914
H         36.98074       17.85830      -11.30216
H         36.15970       17.44746       -8.35388
H         37.63735       16.81425       -9.15316
N         35.23168       20.13963      -11.26151
C         34.05575       20.94566      -11.59459
C         33.11716       21.13273      -10.40338
O         33.59451       21.53940       -9.35178
C         34.54506       22.35315      -12.02867
C         33.41544       23.27888      -12.40256
C         32.86898       23.24455      -13.69406
C         32.89656       24.18227      -11.45715
C         31.81964       24.10354      -14.03542
C         31.83939       25.02903      -11.79827
C         31.30279       24.99185      -13.08747
H         36.15172       20.55412      -11.47626
H         33.52627       20.47280      -12.44507
H         35.26540       22.29334      -12.87369
H         35.10960       22.79898      -11.17771
H         33.26087       22.55903      -14.43484
H         33.29963       24.22037      -10.45230
H         31.40584       24.07920      -15.03464
H         31.43663       25.71343      -11.06257
H         30.48680       25.65159      -13.35142
N         31.75743       20.96385      -10.50582
C         30.83101       21.31580       -9.44081
C         30.75614       20.26563       -8.34765
O         30.14502       20.54288       -7.32537
C         29.49923       21.49225      -10.17667
C         29.60189       20.43375      -11.25741
C         31.04957       20.59524      -11.71738
H         31.11287       22.28824       -8.97781
H         28.58981       21.45319       -9.53926
H         29.51827       22.47827      -10.69650
H         29.49709       19.44193      -10.76279
H         28.85245       20.50459      -12.07451
H         31.40444       19.64252      -12.16420
H         31.14637       21.42808      -12.44579
N         31.34003       19.04138       -8.48069
C         31.37203       18.07148       -7.39144
C         32.27279       18.57700       -6.27594
O         32.05133       18.21197       -5.12957
C         31.87056       16.70505       -7.89547
C         30.87051       16.07031       -8.88608
C         31.47426       14.85182       -9.50785
O         31.88406       13.82519       -8.74503
O         31.73091       14.84751      -10.70177
H         31.78657       18.79346       -9.37419
H         30.34282       17.92522       -6.99255
H         32.00791       16.00580       -7.04059
H         32.86142       16.85362       -8.38089
H         30.63867       16.79023       -9.69945
H         29.92468       15.80821       -8.36679
N         33.31051       19.42392       -6.53660
C         34.16187       19.95318       -5.49502
H         34.92895       20.62347       -5.94002
H         33.55510       20.54291       -4.77520
H         34.67573       19.12540       -4.96373
H         33.51000       19.71226       -7.50476
Ca        33.95424       13.34206       -9.37875
O         35.00575       10.24081       -9.76826
H         35.68704        9.54285       -9.59818
H         34.52361        9.92607      -10.57367
O         32.02885       11.20946      -10.38702
H         31.83274       10.55847      -11.10628
H         31.14915       11.39999       -9.97489
O         34.46177       11.75029       -6.85424
H         33.84132       11.01854       -7.09789
H         33.87515       12.53256       -6.69694
O         36.97876       12.73912       -9.66832
H         37.63901       13.44349       -9.45175
H         37.11578       12.04514       -8.97740

Ca 1.0



