%chk=apoCaM-CA-Ng.loop4.water3.frame974.chk
%nprocshared=20
%mem=10GB
%nosave
#b3lyp/svp scf=(tight,noincore,xqc) Test 
#IOP(5/87=12) Density=Current Pop=(MK,readradii) iop(6/33=2) iop(6/42=6)

apoCaM-CA-Ng.loop4.water3.frame974 

   -3  1 
C         73.99652       20.66206       62.14269
C         73.97884       21.72909       63.19249
O         73.40105       22.78289       62.96957
H         75.04793       20.43418       61.86684
H         73.51733       19.74396       62.54243
H         73.44898       20.99123       61.23489
N         74.61839       21.51335       64.37730
C         74.71695       22.47160       65.47790
C         73.38975       22.72153       66.18889
O         73.39005       23.48261       67.14748
C         75.29561       23.82789       65.00292
C         76.36476       23.68377       63.95831
O         77.50179       23.00559       64.17854
O         76.18025       24.16988       62.85383
H         75.11774       20.61825       64.49784
H         75.42166       22.03345       66.22027
H         75.66868       24.40910       65.87439
H         74.47968       24.42712       64.54135
N         72.21314       22.17424       65.75708
C         70.92908       22.54567       66.33274
C         70.75449       21.82198       67.66620
O         70.69442       20.60095       67.63039
C         69.73751       22.22513       65.35828
C         69.97891       22.85897       63.95535
C         68.42116       22.75166       65.96677
C         68.83566       22.71463       62.95250
H         72.21066       21.53546       64.95600
H         70.90892       23.64407       66.41577
H         69.64759       21.12485       65.22555
H         70.87047       22.40211       63.48574
H         70.16404       23.93317       64.06387
H         68.23416       22.29742       66.96066
H         68.45887       23.85826       66.07252
H         67.55014       22.48359       65.33686
H         67.93891       23.27513       63.28796
H         69.14939       23.16119       61.98383
H         68.58352       21.64719       62.79357
N         70.61171       22.43763       68.87959
C         70.69613       23.87075       69.14075
C         71.57682       24.13908       70.35790
O         71.85699       23.22592       71.12377
C         69.25882       24.38872       69.35708
C         69.15313       25.86609       69.57899
O         68.58999       26.32689       70.71099
O         69.53983       26.65143       68.72752
H         70.38435       21.82955       69.68316
H         71.15053       24.40589       68.29228
H         68.80567       23.85642       70.22208
H         68.65505       24.15115       68.45910
N         72.02026       25.39932       70.61611
C         72.73063       25.73655       71.83962
C         72.95003       27.22756       71.93442
O         74.07228       27.66646       72.13301
H         71.80671       26.14542       69.93761
H         73.68918       25.17760       71.91007
H         72.08936       25.45184       72.70260
N         71.87191       28.05271       71.81491
C         71.88818       29.51143       71.95707
C         70.49115       30.15444       71.84317
O         70.35550       31.27898       72.30442
C         72.91100       30.21449       71.02391
C         72.74499       29.89977       69.55942
O         71.62140       30.22928       68.90216
O         73.65633       29.36747       68.94607
H         70.98421       27.56614       71.67240
H         72.21704       29.70984       73.00128
H         73.93722       29.91702       71.32139
H         72.85700       31.31443       71.17668
N         69.40773       29.52646       71.28272
C         68.05388       30.06156       71.28216
C         67.84017       31.26975       70.39679
O         66.70926       31.72928       70.33860
H         69.49669       28.60455       70.85393
H         67.75256       30.29339       72.32749
H         67.36573       29.27243       70.90510
N         68.85245       31.84058       69.67905
C         68.71600       33.03814       68.85721
C         67.88256       32.81422       67.59627
O         67.62569       33.78152       66.89303
C         68.24909       34.23775       69.72049
C         69.20585       34.43703       70.91670
C         68.89689       35.63597       71.77339
N         69.67966       35.90416       72.84479
O         67.95389       36.36850       71.51261
H         69.79348       31.44980       69.74261
H         69.72622       33.31305       68.47994
H         67.21261       34.09522       70.09159
H         68.26084       35.15405       69.09186
H         70.24297       34.55037       70.53401
H         69.16717       33.54279       71.57373
H         70.47847       35.29402       73.07623
H         69.49187       36.72112       73.44392
N         67.50222       31.56309       67.19730
C         66.76419       31.27971       65.96604
C         67.57137       30.38882       65.01443
O         67.00214       29.90228       64.04835
C         65.38739       30.63419       66.30725
C         65.50587       29.28642       67.04179
C         64.52339       31.60605       67.12339
H         67.76937       30.75215       67.77208
H         66.54005       32.21205       65.40214
H         64.84945       30.44818       65.35062
H         64.49462       28.85385       67.19860
H         66.09449       28.56173       66.44119
H         65.98285       29.40286       68.03661
H         64.99219       31.82850       68.10482
H         64.39183       32.55881       66.56692
H         63.51748       31.17018       67.30129
N         68.90546       30.15229       65.20217
C         69.66171       29.19051       64.39429
C         71.17700       29.45397       64.47782
O         71.60738       30.31405       65.23061
C         69.28260       27.78162       64.92698
C         70.12249       26.65819       64.39230
N         71.02739       26.05345       65.20194
O         70.02514       26.32447       63.22010
H         69.38643       30.62895       65.97530
H         69.40316       29.31246       63.31866
H         68.20865       27.55979       64.74190
H         69.42256       27.81326       66.02828
H         71.12788       26.33711       66.18774
H         71.66106       25.32527       64.84402
N         72.04538       28.73468       63.69798
C         73.49158       28.88950       63.72582
C         74.01531       29.06016       62.31318
O         73.66990       28.25936       61.45514
C         74.16341       27.63595       64.32162
C         75.62930       27.93930       64.53676
C         76.00608       28.85507       65.53496
C         76.61921       27.36550       63.72634
C         77.34749       29.19204       65.71864
C         77.96151       27.71395       63.90430
C         78.33026       28.62740       64.90227
O         79.62049       28.97426       65.08150
H         71.67825       28.03196       63.04853
H         73.77002       29.75603       64.36152
H         74.01468       26.77587       63.62965
H         73.71458       27.35816       65.29938
H         75.25654       29.31238       66.16917
H         76.35124       26.67587       62.94056
H         77.61983       29.90078       66.49031
H         78.71388       27.28280       63.26157
H         80.33155       28.61320       64.53354
N         74.91594       30.03478       62.02022
C         75.47809       30.21671       60.69125
C         76.98241       29.97486       60.74012
O         77.67265       30.83061       61.27487
C         75.05085       31.63240       60.21828
C         75.64600       32.15633       58.90264
C         77.03965       32.69104       59.08540
O         77.26099       33.70178       59.95114
O         77.96805       32.24098       58.43533
H         75.22842       30.66753       62.77246
H         75.03538       29.50203       59.98305
H         75.24661       32.38756       61.01247
H         73.94610       31.58296       60.09440
H         75.03363       33.02420       58.57360
H         75.59301       31.37553       58.11473
N         77.60895       28.84711       60.25521
C         76.98158       27.61326       59.75436
C         76.13218       27.82790       58.51714
O         76.61585       28.37973       57.53832
C         78.04007       26.53796       59.37256
C         78.89767       26.00036       60.53528
C         79.88312       24.97493       60.01889
O         80.68188       25.29356       59.15246
O         79.90702       23.70861       60.48989
H         78.63858       28.84408       60.32076
H         76.35217       27.17731       60.55952
H         78.70550       26.95631       58.58462
H         77.50613       25.65964       58.94061
H         78.23907       25.54159       61.30361
H         79.46990       26.82538       61.00361
N         74.86113       27.33142       58.48302
C         73.99295       27.40688       57.32713
H         73.05434       27.92854       57.60599
H         74.46359       27.94281       56.47757
H         73.74143       26.37632       56.99492
H         74.49132       26.83678       59.30881
Ca        78.76293       23.01563       62.30710
O         79.89165       24.99391       63.87071
H         79.55981       25.38026       64.71895
H         80.62596       25.59115       63.58281
O         79.84636       20.26962       63.95196
H         80.79207       20.00323       63.82879
H         79.58955       19.87353       64.82220
O         81.81724       22.07522       62.27295
H         82.31074       22.42944       61.49132
H         81.80103       22.82555       62.91890

Ca 1.0



