%chk=apoCaM-CA-Ng.loop1.water5.frame545.chk
%nprocshared=20
%mem=10GB
%nosave
#b3lyp/svp scf=(tight,noincore,xqc) Test 
#IOP(5/87=12) Density=Current Pop=(MK,readradii) iop(6/33=2) iop(6/42=6)

apoCaM-CA-Ng.loop1.water5.frame545 

   0  1 
C         87.46068       48.33905       67.06009
C         88.13596       47.83845       65.82014
O         87.56076       47.02361       65.11317
H         86.46355       47.86608       67.18554
H         88.08596       48.10196       67.94603
H         87.32888       49.43925       66.98910
N         89.37437       48.30637       65.49084
C         90.13802       47.89639       64.31509
C         89.51321       48.34127       62.99771
O         90.10863       48.04912       61.96975
C         90.43035       46.37767       64.33521
C         91.16403       45.98155       65.58721
O         90.62253       45.08490       66.43316
O         92.25536       46.46725       65.84087
H         89.81976       48.98864       66.12376
H         91.12362       48.41333       64.35331
H         91.06688       46.10571       63.46522
H         89.49111       45.79349       64.25323
N         88.36148       49.08587       62.93230
C         87.80716       49.63739       61.69515
C         87.34692       48.57345       60.70829
O         86.91794       48.94897       59.62554
C         88.82133       50.61676       61.04499
C         89.27489       51.73924       62.00025
C         88.16709       52.75925       62.30712
C         88.66424       53.81578       63.30331
N         87.65257       54.84854       63.52422
H         87.86789       49.34730       63.79458
H         86.89489       50.21935       61.94466
H         88.39190       51.07428       60.12702
H         89.72256       50.05570       60.72737
H         90.11267       52.28748       61.51756
H         89.66475       51.29439       62.94131
H         87.27703       52.26446       62.74691
H         87.86861       53.25241       61.35583
H         89.59131       54.29480       62.91805
H         88.90211       53.31801       64.27055
H         86.76471       54.42156       63.87495
H         88.00750       55.52745       64.23592
H         87.46933       55.36229       62.63156
N         87.36376       47.24119       61.00986
C         86.93007       46.20866       60.08619
C         85.75802       45.47463       60.72907
O         86.00541       44.57773       61.52336
C         88.12561       45.27300       59.79582
C         87.85826       44.26569       58.71349
O         88.81570       43.38183       58.37655
O         86.80056       44.26227       58.10949
H         87.67625       46.92238       61.93670
H         86.65190       46.64168       59.10738
H         88.42523       44.74549       60.72715
H         88.98749       45.88697       59.45735
N         84.45194       45.82964       60.55196
C         83.95001       46.87839       59.68436
C         82.97254       46.27326       58.72188
O         81.81314       46.66370       58.74498
H         83.73998       45.31361       61.09009
H         84.73113       47.40451       59.11556
H         83.43584       47.64086       60.31076
N         83.36478       45.28437       57.86346
C         82.43370       44.61604       56.96372
C         82.28008       43.15346       57.31204
O         83.07537       42.62645       58.07074
C         82.80921       44.88099       55.49195
C         84.12338       44.39068       54.90217
O         85.00779       43.54045       55.47604
O         84.39340       44.78537       53.77924
H         84.34875       44.98063       57.86886
H         81.42208       45.05613       57.10266
H         82.81837       45.98912       55.38683
H         81.99732       44.49822       54.83746
N         81.20496       42.45146       56.85878
C         80.99769       41.03086       57.10633
C         80.91506       40.58369       58.56564
O         80.77012       39.38857       58.76121
H         80.50835       42.93936       56.27439
H         81.82940       40.47697       56.62376
H         80.05603       40.72133       56.60198
N         81.02837       41.42900       59.63398
C         80.99017       40.98489       61.03374
C         81.98526       39.85923       61.30617
O         83.14243       39.97705       60.93119
C         81.21931       42.17670       62.00321
C         82.62285       42.78925       61.90740
O         80.27254       43.18264       61.75234
H         81.13878       42.43411       59.46012
H         79.96903       40.59692       61.24272
H         81.10177       41.82433       63.05289
H         79.41357       42.87233       62.14145
H         83.40380       42.05708       62.19561
H         82.83028       43.15110       60.88006
H         82.70481       43.64212       62.61248
N         81.57425       38.71660       61.93529
C         82.42520       37.54239       62.11868
C         81.93463       36.42350       61.19648
O         82.70737       35.51013       60.93724
C         82.50527       37.09720       63.62731
C         83.17117       38.15004       64.55839
C         83.30042       35.78361       63.79523
C         82.32633       39.38606       64.85324
H         80.59890       38.66366       62.26423
H         83.45592       37.77470       61.77067
H         81.48015       36.88625       64.00594
H         84.16294       38.44616       64.15171
H         83.34135       37.68626       65.55585
H         82.80510       34.93844       63.27765
H         84.33974       35.89612       63.42020
H         83.33943       35.48749       64.86633
H         81.35735       39.08582       65.30650
H         82.86650       40.03201       65.57755
H         82.14613       39.98985       63.95477
N         80.68568       36.43386       60.63790
C         80.20626       35.41824       59.70969
C         79.07596       34.64128       60.35224
O         78.59938       35.03147       61.41162
C         79.76403       36.12997       58.39704
C         79.43951       35.20130       57.22702
O         78.63204       36.93256       58.63202
H         80.01863       37.17659       60.87894
H         81.02516       34.70068       59.48375
H         80.62255       36.75032       58.04667
H         78.94262       37.82064       58.93576
H         80.29405       34.52423       57.01768
H         78.51779       34.61640       57.41294
H         79.24351       35.81359       56.32133
N         78.60858       33.50815       59.76682
C         77.48925       32.74550       60.28426
C         77.98140       31.36767       60.67915
O         77.83556       31.00607       61.83833
C         76.34446       32.74721       59.23808
C         75.06334       32.11582       59.78986
O         76.73887       32.09212       58.06033
H         79.07098       33.16162       58.91468
H         77.07629       33.23476       61.19589
H         76.12352       33.81598       59.00435
H         76.07821       32.32912       57.35838
H         75.22496       31.04809       60.04344
H         74.73058       32.66453       60.69699
H         74.25521       32.18766       59.03056
N         78.58426       30.54607       59.76967
C         79.04074       29.20546       60.09931
C         80.33275       28.88677       59.36257
O         80.36979       29.01846       58.14609
C         77.94321       28.20286       59.71505
C         78.26552       26.80660       60.26299
C         77.18558       25.79521       59.88229
C         77.48180       24.43426       60.52348
N         76.48999       23.44009       60.12083
H         78.66135       30.85150       58.78969
H         79.19242       29.11416       61.19819
H         77.81069       28.18393       58.61080
H         76.98394       28.53213       60.17419
H         78.33325       26.87148       61.37245
H         79.24233       26.45328       59.86758
H         77.16117       25.69520       58.77512
H         76.19228       26.15220       60.23337
H         77.46873       24.54116       61.63196
H         78.49321       24.08565       60.21732
H         76.52987       23.29908       59.08520
H         76.70509       22.53351       60.59491
H         75.53147       23.75188       60.39965
N         81.41471       28.39444       60.02958
C         82.64633       28.01316       59.34721
C         83.33545       29.23253       58.73539
O         83.51447       29.22465       57.52566
C         83.55249       27.17463       60.27842
C         84.85067       26.72124       59.58760
C         85.69012       25.82838       60.46309
O         85.28823       25.48657       61.70386
O         86.75304       25.40218       60.04141
H         81.33618       28.23207       61.04510
H         82.37904       27.31528       58.51884
H         82.97538       26.27040       60.57612
H         83.80109       27.71570       61.20664
H         85.45576       27.61374       59.31884
H         84.60171       26.16498       58.65783
N         83.74218       30.33043       59.43935
C         83.57666       30.52029       60.86401
H         82.50471       30.47199       61.14236
H         84.16873       29.78344       61.43341
H         83.95858       31.52264       61.15126
H         84.18472       31.10256       58.91654
Ca        85.42861       42.12821       57.19812
O         85.80952       41.47557       60.16696
H         85.61860       41.04412       61.03708
H         85.16506       42.22530       60.11387
O         88.00061       42.19837       55.57044
H         87.85676       42.17243       54.59130
H         88.72327       41.54200       55.73478
O         84.06772       39.42505       57.50840
H         83.81199       39.80996       58.38313
H         84.02535       38.44592       57.64363
O         85.48180       40.19146       54.96502
H         86.25074       39.61071       54.73856
H         84.75444       39.89439       54.36305
O         87.25638       39.48738       57.92637
H         88.17653       39.51061       57.56180
H         86.80726       38.76632       57.41778

Ca 1.0



