%chk=apoCaM-CA-Ng.loop3.water5.frame1070.chk
%nprocshared=20
%mem=10GB
%nosave
#b3lyp/svp scf=(tight,noincore,xqc) Test 
#IOP(5/87=12) Density=Current Pop=(MK,readradii) iop(6/33=2) iop(6/42=6)

apoCaM-CA-Ng.loop3.water5.frame1070 

   0  1 
C         46.71422       74.29453       17.65137
C         47.60356       75.11001       18.53817
O         47.95066       74.65867       19.62048
H         45.76933       74.85031       17.47183
H         47.22066       74.11280       16.68081
H         46.47155       73.31932       18.12368
N         47.99794       76.34756       18.13473
C         48.81731       77.23602       18.94275
C         47.98481       78.44048       19.34929
O         47.83074       78.65253       20.54334
C         50.16976       77.52811       18.24277
C         50.12021       78.01345       16.81276
O         50.58825       77.31748       15.92543
O         49.63684       79.22710       16.49794
H         47.67500       76.68803       17.21591
H         49.10745       76.74031       19.89696
H         50.72546       76.56308       18.23251
H         50.76482       78.23390       18.85820
N         47.37906       79.24786       18.43395
C         46.51517       80.36618       18.79509
C         47.25447       81.65397       18.50756
O         46.84894       82.44539       17.66774
C         45.15936       80.24640       18.06704
C         44.39462       78.98352       18.50868
C         43.05438       78.78387       17.78072
C         42.02885       79.89623       18.05682
N         40.75365       79.60034       17.40290
H         47.51372       79.06555       17.43242
H         46.29875       80.38295       19.88527
H         45.32589       80.22167       16.96765
H         44.55322       81.14220       18.31679
H         44.21298       79.02217       19.60557
H         45.02090       78.09011       18.29545
H         42.62450       77.82051       18.13304
H         43.23476       78.70257       16.68684
H         42.40614       80.86961       17.67761
H         41.86292       79.98388       19.15353
H         40.07663       80.37128       17.60470
H         40.88696       79.52943       16.36787
H         40.36034       78.70300       17.76947
N         48.37388       81.91553       19.23581
C         49.21290       83.09787       19.09654
C         50.64742       82.71380       18.73046
O         51.50510       83.58566       18.71860
C         49.13760       83.93037       20.40194
C         49.64444       83.27053       21.66211
O         50.12416       82.14987       21.65230
O         49.56625       83.94009       22.82751
H         48.64418       81.22472       19.95147
H         48.83180       83.75921       18.28791
H         48.07224       84.20212       20.56867
H         49.70753       84.87363       20.26153
N         50.97492       81.42693       18.40371
C         52.31762       80.95906       18.10087
C         52.96035       81.60461       16.89414
O         52.37667       82.49713       16.29649
H         50.24325       80.70682       18.39232
H         52.25975       79.87330       17.89533
H         52.96394       81.12796       18.98689
N         54.19988       81.22218       16.46752
C         54.96159       80.11738       17.04794
C         54.49346       78.80378       16.43297
O         54.47726       78.71758       15.21290
C         56.47358       80.32997       16.79585
C         57.34468       79.32316       17.52429
N         57.37176       78.01480       17.17213
O         58.05053       79.70648       18.44541
H         54.61544       81.73396       15.67241
H         54.86430       80.14360       18.15175
H         56.72409       81.33926       17.19274
H         56.71558       80.32419       15.71132
H         56.81940       77.65838       16.38127
H         57.96829       77.34925       17.68626
N         54.16427       77.70252       17.16946
C         54.21222       77.66591       18.62351
C         54.08602       76.27341       19.19759
O         54.00409       75.29868       18.46054
H         53.92045       76.84593       16.64774
H         53.41043       78.30960       19.03481
H         55.19645       78.03928       18.97318
N         54.08282       76.11687       20.55114
C         54.03856       74.80714       21.19827
C         53.73407       74.92794       22.69367
O         53.86166       76.00120       23.26882
C         55.39830       74.08861       20.97324
C         55.47196       72.69530       21.54661
C         56.37033       72.40341       22.58794
C         54.65340       71.67312       21.04010
C         56.43814       71.11380       23.12185
C         54.72503       70.38278       21.57401
C         55.61643       70.10005       22.61975
O         55.69123       68.86232       23.14877
H         54.09601       76.97412       21.12414
H         53.19326       74.24288       20.74445
H         56.18819       74.72632       21.42993
H         55.63152       74.01437       19.89040
H         57.01531       73.17374       22.99252
H         53.96119       71.87660       20.23299
H         57.12992       70.90312       23.92796
H         54.08629       69.60489       21.17595
H         55.13683       68.13409       22.83434
N         53.26252       73.84567       23.37468
C         52.90339       73.87543       24.79044
C         54.08153       74.20064       25.69324
O         55.13100       73.58208       25.59323
C         52.21307       72.56502       25.28816
C         50.75435       72.42828       24.78547
C         53.01120       71.28679       24.95912
C         49.81461       73.50302       25.35860
H         53.10269       72.98379       22.83945
H         52.17216       74.68993       24.92984
H         52.14617       72.62039       26.39908
H         50.35448       71.45413       25.14215
H         50.71500       72.43634       23.67543
H         53.04614       71.08630       23.87065
H         54.04664       71.34294       25.34829
H         52.52501       70.40893       25.43426
H         50.05783       74.52349       25.00415
H         48.77189       73.29315       25.04473
H         49.85192       73.49117       26.47036
N         53.91468       75.15568       26.65406
C         54.91743       75.53114       27.65291
C         54.45631       76.75350       28.45574
O         53.33680       77.20679       28.27228
C         55.22089       74.34397       28.59118
O         54.05097       73.93922       29.25055
H         53.00057       75.62858       26.67151
H         55.84387       75.83016       27.11685
H         55.98855       74.63292       29.34054
H         55.62910       73.49598       27.99875
H         54.25192       73.05759       29.66120
N         55.29989       77.38015       29.33105
C         54.97595       78.63768       30.01375
C         53.84045       78.53128       31.03130
O         53.40108       79.56620       31.51288
C         54.68056       79.73625       28.97165
H         56.24699       76.99606       29.46463
H         55.87363       78.97649       30.57483
H         53.75266       79.54069       28.39697
H         54.55554       80.72007       29.46974
H         55.52747       79.81522       28.25760
N         53.32423       77.32938       31.42238
C         52.18067       77.16857       32.31951
C         50.93541       77.77260       31.69540
O         50.15186       78.42873       32.36906
C         52.46641       77.70667       33.73207
H         53.73011       76.46201       31.04347
H         51.99127       76.07579       32.41019
H         51.60944       77.49111       34.40579
H         53.37154       77.21913       34.14953
H         52.62498       78.80493       33.72565
N         50.72057       77.59822       30.36463
C         49.56818       78.11712       29.65132
C         48.38148       77.24210       29.97289
O         47.37169       77.74918       30.44116
C         49.91917       78.21458       28.15013
C         48.84416       78.90242       27.29593
C         49.48202       79.44366       26.01280
O         48.57403       80.18023       25.24573
O         50.01367       78.43713       25.19971
H         51.43087       77.08869       29.82211
H         49.37588       79.16691       29.97344
H         50.18880       77.22833       27.71160
H         50.82751       78.85989       28.11582
H         48.46249       79.79197       27.84090
H         47.99302       78.21488       27.09688
N         48.47091       75.89181       29.82241
C         47.40862       74.99863       30.22657
H         46.49290       75.20013       29.63458
H         47.72198       73.94459       30.06803
H         47.19287       75.13695       31.30884
H         49.34173       75.47792       29.45547
Ca        49.22380       79.30778       23.25359
O         50.47708       76.82883       22.30997
H         50.50227       75.85907       22.11596
H         51.39864       77.05215       22.59351
O         47.03405       81.22306       22.43176
H         46.39796       80.46750       22.50248
H         46.54549       81.91433       21.91861
O         52.02661       81.17362       24.01711
H         52.73696       81.29290       24.69642
H         51.34996       81.86029       24.24311
O         46.98889       77.44326       23.26070
H         46.40865       77.53763       22.46441
H         46.69047       78.16418       23.87057
O         51.74966       79.40450       21.17724
H         51.77192       80.35735       20.91648
H         52.65017       79.23361       21.55016

Ca 1.0



