%chk=apoCaM-CA-Ng.loop4.water4.frame532.chk
%nprocshared=20
%mem=10GB
%nosave
#b3lyp/svp scf=(tight,noincore,xqc) Test 
#IOP(5/87=12) Density=Current Pop=(MK,readradii) iop(6/33=2) iop(6/42=6)

apoCaM-CA-Ng.loop4.water4.frame532 

   -3  1 
C         75.56733       -0.80348       65.40253
C         75.06546       -2.00002       66.15768
O         73.94790       -1.96083       66.64415
H         76.59360       -0.96972       65.01145
H         74.89391       -0.59429       64.54561
H         75.58850        0.07872       66.07544
N         75.84920       -3.10703       66.29383
C         75.49635       -4.32241       67.02820
C         74.33584       -5.11814       66.41102
O         74.00188       -6.15384       66.97186
C         75.17220       -4.03944       68.51804
C         75.99091       -2.97211       69.19031
O         75.31749       -1.93105       69.72736
O         77.20432       -3.05656       69.29059
H         76.79145       -3.08558       65.87395
H         76.39819       -4.97490       67.00875
H         75.23948       -4.98934       69.09158
H         74.12793       -3.69992       68.59753
N         73.65234       -4.70679       65.29572
C         72.47786       -5.42279       64.77935
C         72.83239       -6.84760       64.34860
O         74.00748       -7.11392       64.13668
C         71.78655       -4.64673       63.60457
C         72.72857       -4.45994       62.38549
C         71.21123       -3.31087       64.11289
C         72.00482       -3.93877       61.14237
H         73.94194       -3.84313       64.82668
H         71.76186       -5.49502       65.62858
H         70.92599       -5.24127       63.24381
H         73.15711       -5.44463       62.10386
H         73.56747       -3.77599       62.63001
H         70.50705       -3.50252       64.94951
H         72.01013       -2.62877       64.46955
H         70.63270       -2.79203       63.32322
H         72.72293       -3.87770       60.29797
H         71.18813       -4.63671       60.85730
H         71.58382       -2.92717       61.30496
N         71.90894       -7.85470       64.23793
C         70.49280       -7.74543       64.59543
C         70.23658       -8.16585       66.03293
O         69.14347       -7.92201       66.52284
C         69.60488       -8.51913       63.59200
C         69.80257      -10.02055       63.58219
O         70.67149      -10.62867       64.41402
O         69.14851      -10.70278       62.81031
H         72.27456       -8.78977       64.00310
H         70.17750       -6.69110       64.56017
H         69.80687       -8.13043       62.57017
H         68.53624       -8.32301       63.82825
N         71.19939       -8.78008       66.77695
C         71.04986       -9.12912       68.17565
C         69.89018      -10.06451       68.44260
O         69.78585      -11.10446       67.80838
H         72.10845       -9.00631       66.35042
H         70.94905       -8.19774       68.77460
H         71.98120       -9.63638       68.50633
N         69.02142       -9.77130       69.45040
C         67.94712      -10.65478       69.90061
C         66.71089      -10.66721       69.00134
O         65.73758      -11.30014       69.39007
C         67.56117      -10.32674       71.37436
C         67.09575       -8.92477       71.68997
O         67.09719       -8.04040       70.85255
O         66.71291       -8.63276       72.94698
H         69.22521       -8.92904       70.00769
H         68.33299      -11.69751       69.94774
H         68.44700      -10.51912       72.01660
H         66.76515      -11.03340       71.69474
N         66.64630      -10.02563       67.79714
C         65.41122       -9.97617       67.02345
C         64.39240       -9.02874       67.63911
O         63.28027       -8.95225       67.13943
H         67.47313       -9.55404       67.41308
H         64.99914      -11.00295       66.91606
H         65.62480       -9.58872       66.00320
N         64.74211       -8.21212       68.67451
C         63.92953       -7.15041       69.24649
C         63.61805       -6.12244       68.17736
O         62.48217       -5.69378       68.02830
C         62.71137       -7.69325       70.02055
C         63.16463       -8.60583       71.17882
C         62.02842       -9.10753       72.03598
N         62.29363       -9.89744       73.10248
O         60.87144       -8.80340       71.78345
H         65.69447       -8.26179       69.03600
H         64.56628       -6.61386       69.98753
H         62.03161       -8.24842       69.33962
H         62.15628       -6.83071       70.45133
H         63.85689       -8.03572       71.83651
H         63.70977       -9.48419       70.77049
H         63.26338      -10.16047       73.33333
H         61.53033      -10.24400       73.70241
N         64.63672       -5.70220       67.37530
C         64.52529       -4.69324       66.33251
C         65.58673       -3.61588       66.50374
O         65.66468       -2.75056       65.64339
C         64.68274       -5.34348       64.92571
C         66.02958       -6.06976       64.73903
C         63.52004       -6.29509       64.62932
H         65.55903       -6.14804       67.49867
H         63.53026       -4.19592       66.36343
H         64.62702       -4.53232       64.16539
H         66.12415       -6.93341       65.42961
H         66.11270       -6.45131       63.69967
H         66.88042       -5.37745       64.91307
H         63.51600       -7.14653       65.33633
H         62.55388       -5.75245       64.71277
H         63.60529       -6.69014       63.59499
N         66.44976       -3.60354       67.56511
C         67.56547       -2.67462       67.65131
C         67.27645       -1.64787       68.73478
O         66.32896       -1.80492       69.48854
C         68.84498       -3.50476       67.93976
C         70.17834       -2.82747       67.74409
N         71.29996       -3.44159       68.17044
O         70.27382       -1.75661       67.16873
H         66.33921       -4.26970       68.34194
H         67.67561       -2.13848       66.68467
H         68.87065       -4.39440       67.27244
H         68.77489       -3.87690       68.98609
H         71.26518       -4.35483       68.64602
H         72.20404       -2.98066       68.03381
N         68.03758       -0.52619       68.81521
C         67.84624        0.53174       69.80260
C         68.72186        1.73356       69.47896
O         69.54426        1.67563       68.57719
C         68.08729       -0.00216       71.23691
C         69.35486       -0.82486       71.36953
C         70.63142       -0.25847       71.20284
C         69.25317       -2.19831       71.66119
C         71.77760       -1.05488       71.32009
C         70.39715       -2.98949       71.77462
C         71.66219       -2.42397       71.60420
O         72.75505       -3.20508       71.71781
H         68.75535       -0.40354       68.10423
H         66.80136        0.90343       69.72231
H         67.22282       -0.65003       71.49159
H         68.07441        0.82173       71.98150
H         70.74668        0.79437       70.98597
H         68.28471       -2.66467       71.79449
H         72.75477       -0.60858       71.19033
H         70.29794       -4.04524       71.99479
H         73.65116       -2.85706       71.61351
N         68.54145        2.89931       70.16075
C         69.27843        4.10863       69.83159
C         70.06894        4.54512       71.05233
O         69.44664        4.93455       72.02957
C         68.29240        5.20173       69.36374
C         67.53732        4.77139       68.09196
C         66.53112        5.80498       67.67630
O         66.61488        6.34204       66.58344
O         65.51219        6.12324       68.49803
H         67.83291        2.94320       70.90742
H         69.96233        3.91924       68.98887
H         68.84877        6.14036       69.14866
H         67.55902        5.40458       70.17574
H         66.98919        3.82136       68.26849
H         68.27027        4.60545       67.27136
N         71.43511        4.47638       71.13075
C         72.31855        3.94501       70.08934
C         72.31707        4.81130       68.83918
O         71.72749        5.88404       68.83461
C         73.77098        3.83845       70.61907
C         73.94364        2.75030       71.69284
C         75.33122        2.80302       72.27898
O         76.20335        1.77862       72.15022
O         75.67498        3.79334       72.90487
H         71.86070        4.77427       72.02315
H         71.96748        2.92736       69.80753
H         74.07052        4.83553       71.01246
H         74.46749        3.57546       69.79731
H         73.75577        1.75721       71.23157
H         73.21687        2.88960       72.52113
N         72.95575        4.36722       67.71914
C         72.99791        5.09569       66.46919
H         74.05598        5.28788       66.19444
H         72.52850        4.47981       65.67310
H         72.46298        6.06608       66.52555
H         73.42780        3.45111       67.73908
Ca        75.92912       -0.08280       70.88289
O         73.97381        0.38611       68.49828
H         73.36229       -0.34667       68.76029
H         73.46076        1.21034       68.68332
O         78.81040        2.19671       70.47984
H         78.46606        3.09669       70.70833
H         79.52769        2.02988       71.14169
O         78.24722       -1.04004       72.85146
H         77.35410       -1.16517       73.26060
H         78.41786       -0.06710       72.92127
O         76.42977        2.37899       68.31006
H         76.21129        2.32160       67.34623
H         76.53819        3.34819       68.48153

Ca 1.0



