%chk=apoCaM-CA-Ng.loop1.water3.frame1179.chk
%nprocshared=20
%mem=10GB
%nosave
#b3lyp/svp scf=(tight,noincore,xqc) Test 
#IOP(5/87=12) Density=Current Pop=(MK,readradii) iop(6/33=2) iop(6/42=6)

apoCaM-CA-Ng.loop1.water3.frame1179 

   0  1 
C         20.17077       35.21311        3.93414
C         21.27059       36.17293        3.59356
O         21.23631       37.28509        4.09686
H         19.20946       35.59792        3.53202
H         20.36120       34.20913        3.50327
H         20.08852       35.11875        5.03746
N         22.28918       35.80266        2.75889
C         23.41220       36.66939        2.38927
C         23.05287       37.64159        1.25690
O         23.80211       37.75555        0.29452
C         24.61199       35.79431        1.95608
C         25.01938       34.82787        3.03010
O         25.51647       35.27985        4.19654
O         24.90270       33.62647        2.84708
H         22.30103       34.82500        2.43295
H         23.72120       37.25255        3.28107
H         25.49160       36.42396        1.69716
H         24.31142       35.22612        1.04683
N         21.91352       38.37723        1.29653
C         21.54893       39.35617        0.28939
C         22.27119       40.65798        0.54283
O         22.87034       41.15531       -0.40063
C         20.02920       39.51461        0.17241
C         19.39527       38.15507       -0.17084
C         17.91441       38.31696       -0.47890
C         17.23195       36.95663       -0.65039
N         15.78148       37.12558       -0.66921
H         21.24527       38.21640        2.04515
H         21.85007       38.98380       -0.71705
H         19.81860       40.23381       -0.64959
H         19.57878       39.91328        1.10702
H         19.51456       37.47803        0.70424
H         19.89986       37.68742       -1.04588
H         17.78150       38.92542       -1.40306
H         17.44559       38.84831        0.37382
H         17.49373       36.29670        0.20653
H         17.58217       36.46417       -1.58677
H         15.32507       36.19372       -0.78907
H         15.47315       37.53092        0.24581
H         15.49685       37.76270       -1.44747
N         22.37736       41.26238        1.76435
C         21.78610       40.84001        3.04553
C         22.83497       40.18687        3.93730
O         23.97027       40.02816        3.51434
C         21.08817       42.03454        3.71670
C         21.93734       43.25790        3.67366
O         23.09403       43.33641        4.35734
O         21.60675       44.15505        2.91876
H         23.01258       42.07514        1.78927
H         20.99315       40.09198        2.91230
H         20.76597       41.82076        4.75874
H         20.16988       42.25023        3.12854
N         22.48674       39.68044        5.15848
C         23.40702       38.91781        5.99036
C         24.43750       39.75501        6.70523
O         24.36313       40.97880        6.67207
H         21.50445       39.74505        5.46466
H         23.90179       38.14174        5.37245
H         22.83372       38.39349        6.78520
N         25.43611       39.12976        7.39737
C         26.43598       39.80913        8.21390
C         26.62636       39.14987        9.56822
O         26.22895       37.99947        9.72800
C         27.79454       39.90283        7.42876
C         27.70441       41.01459        6.44020
O         26.94700       42.02564        6.84374
O         28.06919       40.91483        5.28210
H         25.49994       38.10177        7.32056
H         26.03022       40.80338        8.49598
H         28.07222       38.94619        6.94053
H         28.63344       40.16753        8.09552
N         27.23286       39.78660       10.61813
C         27.64190       41.19504       10.61291
C         26.45721       42.12859       10.75796
O         25.38743       41.69371       11.14529
H         27.39123       39.25789       11.48803
H         28.18564       41.44111        9.69000
H         28.35140       41.39256       11.44479
N         26.60153       43.45763       10.46160
C         25.48980       44.40743       10.53063
C         24.41267       44.09697        9.42430
O         24.69554       44.78251        8.23224
C         26.01075       45.86494       10.40543
C         26.84994       46.30343       11.60695
O         24.93102       46.75350       10.26961
H         27.53350       43.79097       10.17954
H         25.02905       44.30403       11.54094
H         26.64890       45.89757        9.49764
H         25.25736       47.51906        9.72726
H         27.72020       45.63489       11.76394
H         27.22648       47.33454       11.43093
H         26.22403       46.31318       12.52460
N         23.09123       44.57763        9.86414
C         21.91500       44.22589        9.02618
C         21.85551       45.03138        7.72803
O         22.66722       44.80590        6.84204
C         21.75785       42.70533        8.68315
C         21.94476       41.78811        9.91636
C         20.36711       42.47871        8.04297
C         21.63466       40.31193        9.63602
H         22.90140       44.30868       10.85712
H         21.03225       44.51425        9.63833
H         22.53144       42.42602        7.93347
H         21.29289       42.12522       10.74904
H         23.00017       41.85639       10.24730
H         19.56891       42.62085        8.80315
H         20.17475       43.17282        7.20312
H         20.28854       41.46129        7.61053
H         20.55264       40.17368        9.42512
H         22.22561       39.93765        8.77455
H         21.86848       39.70004       10.53075
N         20.84956       45.92587        7.50990
C         20.68031       46.61489        6.23340
C         20.85852       48.11675        6.37731
O         20.17519       48.88064        5.70994
C         19.34864       46.18674        5.55886
C         18.11498       46.49842        6.40491
O         19.35348       44.80524        5.33176
H         20.16927       46.10122        8.26160
H         21.49249       46.32203        5.53070
H         19.23869       46.71915        4.58438
H         19.98291       44.65287        4.59071
H         18.04987       47.57998        6.63342
H         17.20452       46.19047        5.84896
H         18.13406       45.91993        7.35223
N         21.85904       48.59664        7.16598
C         22.29647       49.98696        7.19171
C         23.76762       50.00574        6.82425
O         24.54825       49.31751        7.46700
C         22.07099       50.64507        8.57370
C         20.59021       50.93631        8.82961
O         22.57709       49.83911        9.60815
H         22.38976       47.92698        7.74435
H         21.73967       50.60240        6.45093
H         22.56712       51.64725        8.57626
H         23.46754       50.20054        9.85593
H         20.46831       51.42646        9.81972
H         20.20592       51.63884        8.05670
H         19.98487       50.00747        8.80573
N         24.21162       50.77599        5.78855
C         25.60454       50.85931        5.35377
C         26.09314       49.52327        4.82171
O         27.07362       48.99392        5.32649
C         26.53071       51.37878        6.47845
C         26.18825       52.79205        6.94707
C         27.15019       53.20576        8.06809
C         26.94538       54.66905        8.46697
N         27.72593       54.99545        9.65964
H         23.52572       51.35198        5.27738
H         25.66278       51.57886        4.50729
H         27.57105       51.40226        6.08570
H         26.51648       50.68573        7.34546
H         25.14556       52.83065        7.33463
H         26.27908       53.48630        6.08436
H         28.20732       53.07530        7.74371
H         26.96642       52.54406        8.94335
H         25.87093       54.85541        8.68001
H         27.25750       55.32255        7.62030
H         27.57585       56.00116        9.90146
H         27.40116       54.40722       10.46193
H         28.74469       54.82931        9.49164
N         25.45772       48.93049        3.77396
C         25.86536       47.64100        3.22170
C         24.78266       46.61045        3.46270
O         25.08116       45.65301        4.16180
C         26.31638       47.73496        1.75014
C         27.62987       48.52147        1.63294
C         28.14126       48.50778        0.22268
O         28.49049       47.34256       -0.35712
O         28.26395       49.55127       -0.39745
H         24.64192       49.41516        3.37751
H         26.75768       47.25591        3.76180
H         25.55431       48.20208        1.09875
H         26.49842       46.70219        1.37907
H         28.40881       48.05918        2.27928
H         27.46513       49.56634        1.97337
N         23.50783       46.66696        2.99015
C         22.90162       47.64487        2.11700
H         22.03007       48.09593        2.63488
H         23.57395       48.44852        1.80112
H         22.53798       47.12585        1.20419
H         22.88822       45.92141        3.29743
Ca        25.74232       43.75770        6.51941
O         26.33705       46.30197        6.50113
H         27.11081       46.58903        5.96304
H         26.58429       46.52411        7.42716
O         27.86998       44.42592        4.62208
H         27.77439       44.22285        3.65856
H         28.26340       43.60730        5.01436
O         26.16041       42.10522        3.76254
H         26.17395       42.15693        2.77550
H         25.21174       41.97872        3.99945

Ca 1.0



