%chk=apoCaM-CA-Ng.loop1.water3.frame1037.chk
%nprocshared=20
%mem=10GB
%nosave
#b3lyp/svp scf=(tight,noincore,xqc) Test 
#IOP(5/87=12) Density=Current Pop=(MK,readradii) iop(6/33=2) iop(6/42=6)

apoCaM-CA-Ng.loop1.water3.frame1037 

   0  1 
C          9.63844       30.93010       54.57004
C          9.19102       31.50916       55.87699
O          8.49342       32.51025       55.87268
H         10.74815       30.91387       54.53063
H          9.25036       29.89553       54.47150
H          9.26114       31.53925       53.72052
N          9.58509       30.93289       57.04596
C          9.23814       31.44965       58.36510
C         10.49474       31.98868       59.00945
O         10.94421       31.49562       60.03485
C          8.48049       30.40231       59.21437
C          9.23800       29.13099       59.49236
O          9.53304       28.79149       60.76176
O          9.55111       28.38043       58.58297
H         10.20871       30.11468       56.99072
H          8.54696       32.31386       58.28429
H          7.52756       30.14253       58.70529
H          8.22016       30.88018       60.18537
N         11.09403       33.06359       58.43095
C         12.31765       33.68002       58.91297
C         12.00283       34.94343       59.71496
O         12.44215       34.98343       60.85609
C         13.32704       33.87443       57.75670
C         13.59634       32.53807       57.03775
C         14.59723       32.68439       55.88674
C         14.77081       31.34277       55.15678
N         15.71325       31.46179       54.04547
H         10.64832       33.46044       57.59396
H         12.82490       32.98727       59.62428
H         14.27962       34.27183       58.17109
H         12.95396       34.60173       57.01158
H         12.64101       32.15572       56.61592
H         13.98437       31.79423       57.76808
H         15.57722       33.02520       56.28652
H         14.22067       33.44127       55.16434
H         13.78506       31.00799       54.76142
H         15.13998       30.57248       55.87013
H         16.65588       31.74064       54.40198
H         15.79260       30.53595       53.56546
H         15.37008       32.17003       53.35659
N         11.22471       35.99397       59.30001
C         10.52315       36.12447       58.02520
C          9.10269       35.55113       58.12024
O          8.68970       35.13202       59.19329
C         10.52867       37.61033       57.58018
C          9.72612       38.46677       58.52519
O          8.43873       38.14154       58.71739
O         10.23598       39.38852       59.13569
H         11.04179       36.72553       60.00527
H         11.06013       35.56650       57.24340
H         10.08613       37.69202       56.56800
H         11.57759       37.97591       57.52001
N          8.31372       35.46839       57.00968
C          6.98864       34.85559       57.00609
C          5.90871       35.67917       57.66574
O          6.16430       36.78586       58.10229
H          8.70223       35.77329       56.10470
H          7.03754       33.85868       57.48642
H          6.66645       34.71640       55.95174
N          4.63551       35.18620       57.71250
C          3.47335       35.94092       58.20260
C          2.19248       35.48669       57.47492
O          2.20930       34.43553       56.85058
C          3.34553       35.79468       59.74563
C          4.49288       36.46711       60.43668
O          4.66246       37.79918       60.29683
O          5.31427       35.80550       61.04952
H          4.48984       34.25822       57.28889
H          3.62850       36.99849       57.92356
H          3.30966       34.71216       59.99803
H          2.42852       36.25013       60.15087
N          1.03117       36.21357       57.45456
C          0.83230       37.50704       58.08233
C          1.68751       38.60583       57.49040
O          2.27800       38.44389       56.43148
H          0.22183       35.81521       56.95231
H          1.01610       37.42430       59.16477
H         -0.22910       37.82177       57.97982
N          1.80609       39.76669       58.18355
C          2.60742       40.91621       57.77402
C          4.07194       40.56215       57.53924
O          4.67697       39.90637       58.37171
C          2.49271       42.01967       58.85547
C          3.29848       43.27216       58.51459
O          2.92628       41.53214       60.10185
H          1.29353       39.82487       59.07782
H          2.18433       41.33245       56.83325
H          1.41984       42.32764       58.90729
H          2.13123       41.46046       60.69228
H          2.98927       43.68231       57.53056
H          3.11783       44.03430       59.29937
H          4.38734       43.04949       58.48947
N          4.71092       41.07185       56.44204
C          6.13319       40.94831       56.12487
C          7.01407       41.58118       57.20128
O          6.99444       41.14454       58.34229
C          6.56487       39.48573       55.81500
C          5.65791       38.79776       54.76002
C          8.03893       39.44254       55.35609
C          5.58067       39.50621       53.40169
H          4.15514       41.64091       55.78576
H          6.30255       41.51853       55.18597
H          6.49043       38.88406       56.74248
H          4.62819       38.71735       55.16369
H          6.02760       37.76128       54.59504
H          8.20086       40.06182       54.44928
H          8.71380       39.82940       56.14722
H          8.34271       38.39915       55.13041
H          4.92448       38.92354       52.72208
H          5.14033       40.51883       53.50576
H          6.57863       39.58543       52.92517
N          7.89471       42.56692       56.86557
C          8.90151       43.07133       57.79830
C          8.36457       44.06467       58.82091
O          9.10231       44.38422       59.74384
C         10.09759       43.69909       57.03025
C          9.72269       44.96932       56.24918
O         10.63197       42.76088       56.13191
H          7.94499       42.84244       55.87503
H          9.31070       42.19502       58.35121
H         10.88724       43.99811       57.75892
H         11.13594       42.09809       56.67283
H          9.33635       45.75436       56.93230
H         10.62350       45.37063       55.73898
H          8.95669       44.76849       55.47300
N          7.14763       44.66782       58.68763
C          6.70815       45.72308       59.59941
C          6.46443       45.15423       60.98797
O          5.57864       44.32493       61.14087
C          5.44754       46.43474       59.04113
C          4.93646       47.54833       59.96014
O          5.75123       47.00646       57.79209
H          6.55974       44.43179       57.87485
H          7.50812       46.49667       59.64549
H          4.61927       45.70206       58.93817
H          5.39725       46.40176       57.08888
H          5.72082       48.31919       60.11488
H          4.04731       48.03149       59.50089
H          4.62661       47.13699       60.94282
N          7.22237       45.56823       62.04922
C          7.02140       45.12173       63.42489
C          7.17648       43.61736       63.54240
O          6.21384       42.93310       63.86330
C          5.67291       45.62707       63.99170
C          5.63227       47.16122       64.06971
C          4.32587       47.64474       64.71662
C          4.21805       49.17812       64.79340
N          5.23744       49.77358       65.66092
H          7.98135       46.24585       61.88159
H          7.80748       45.56868       64.07475
H          5.56514       45.23558       65.02836
H          4.81936       45.24907       63.38969
H          5.72300       47.59243       63.05062
H          6.49547       47.50097       64.67950
H          4.23128       47.22081       65.74081
H          3.47346       47.27316       64.10723
H          3.21463       49.43040       65.20263
H          4.29036       49.61353       63.77242
H          5.17943       49.36354       66.62141
H          6.19413       49.63107       65.26762
H          5.06635       50.80308       65.72556
N          8.40234       43.04503       63.36470
C          8.64270       41.61476       63.52723
C          9.30414       41.03418       62.27776
O          8.61743       40.29274       61.59138
C          9.40324       41.33712       64.83892
C          8.56918       41.72491       66.07024
C          9.33371       41.47831       67.33826
O          9.60792       42.50265       68.16867
O          9.70548       40.35177       67.62611
H          9.19914       43.66431       63.16538
H          7.66946       41.08204       63.63076
H         10.33467       41.92737       64.88225
H          9.64215       40.25219       64.89751
H          7.62835       41.13313       66.09276
H          8.30668       42.80347       66.02043
N         10.58373       41.28095       61.85894
C         11.59303       42.04092       62.56065
H         12.51853       42.07789       61.94731
H         11.26674       43.07994       62.74426
H         11.87660       41.52369       63.49728
H         10.88566       40.86068       60.96930
Ca         6.76932       38.59293       60.15477
O          6.08802       38.46863       63.33889
H          5.40171       37.78481       63.13515
H          5.62141       39.12271       63.91734
O          5.56372       40.97895       61.42944
H          5.02707       41.60768       61.97192
H          5.56396       41.37610       60.52357
O          8.60069       36.75720       61.99050
H          9.18006       35.98372       61.77753
H          7.69828       36.47079       61.70488

Ca 1.0



