%chk=apoCaM-CA-Ng.loop2.water4.frame1160.chk
%nprocshared=20
%mem=10GB
%nosave
#b3lyp/svp scf=(tight,noincore,xqc) Test 
#IOP(5/87=12) Density=Current Pop=(MK,readradii) iop(6/33=2) iop(6/42=6)

apoCaM-CA-Ng.loop2.water4.frame1160 

   -2  1 
C        107.07882       60.66437       87.68673
C        105.89020       60.55322       88.61282
O        105.54398       59.42362       88.92616
H        107.94558       60.15958       88.16238
H        106.84643       60.14548       86.73379
H        107.41298       61.68132       87.43313
N        105.19009       61.61086       89.12552
C        105.41568       63.02668       88.85079
C        104.17294       63.60976       88.18079
O        103.64773       62.94657       87.29760
C        105.89492       63.71490       90.15248
C        104.92942       63.57337       91.30057
O        103.82208       64.07927       91.24780
O        105.29173       62.88746       92.40186
H        104.41751       61.38590       89.76772
H        106.21709       63.17277       88.11482
H        106.12279       64.78684       89.98043
H        106.84771       63.22582       90.45262
N        103.66425       64.83972       88.49678
C        102.46926       65.41325       87.88529
C        101.24781       64.57864       88.23311
O        100.54941       64.08268       87.36008
C        102.65721       65.64727       86.37991
H        104.13355       65.42198       89.20260
H        102.30336       66.42088       88.33146
H        101.76548       66.16777       85.96939
H        103.54312       66.29691       86.21338
H        102.79540       64.70134       85.82136
N        100.92415       64.44016       89.54481
C         99.74198       63.73579       90.04941
C         99.40975       64.25220       91.45599
O        100.05583       65.19138       91.90393
C         99.96232       62.20003       89.98018
C        101.05155       61.77581       90.91694
O        100.88928       62.00108       92.23163
O        102.08786       61.29241       90.49631
H        101.54789       64.91915       90.21080
H         98.86440       63.98965       89.41698
H        100.21574       61.91262       88.93611
H         99.03251       61.65927       90.25517
N         98.43411       63.69348       92.22925
C         98.13736       64.21503       93.55685
C         98.62020       63.28329       94.63390
O         99.77950       62.89860       94.61616
H         97.91409       62.87020       91.89237
H         97.05412       64.44457       93.64186
H         98.66838       65.17100       93.74244
N         97.81234       62.96483       95.67551
C         98.27121       62.16722       96.80624
C         98.48409       60.72800       96.38638
O         97.56107       60.11228       95.87077
C         97.26294       62.27212       97.96408
C         97.20971       63.69978       98.46474
N         96.07743       64.43317       98.36890
O         98.21320       64.20386       98.94889
H         96.86307       63.36919       95.69718
H         99.23110       62.58418       97.18888
H         97.57900       61.62275       98.80940
H         96.26301       61.93090       97.61799
H         95.22374       64.03774       97.95077
H         96.06164       65.40989       98.69959
N         99.69177       60.12582       96.59257
C         99.99030       58.75119       96.21713
C         99.10990       57.73495       96.92339
O         98.23889       58.12517       97.68806
H        100.45048       60.66867       97.03278
H        101.04924       58.54225       96.48306
H         99.86960       58.63961       95.11822
N         99.25170       56.39074       96.73425
C        100.28956       55.75354       95.92522
C         99.67761       54.99854       94.75254
O         98.46903       55.04097       94.56439
C        101.14635       54.83229       96.83602
C        101.87808       55.64249       97.91014
O        100.34659       53.86095       97.46097
H         98.59125       55.76766       97.22673
H        100.97314       56.49988       95.47275
H        101.95093       54.33529       96.24986
H        100.21091       53.13042       96.80294
H        102.53972       56.39811       97.43378
H        101.16033       56.16315       98.57818
H        102.50839       54.96775       98.52754
N        100.48090       54.28867       93.90771
C        100.00932       53.59473       92.71478
C         99.88658       52.10838       93.03952
O        100.89672       51.54004       93.43200
C        101.02389       53.82447       91.55119
C        101.16210       55.33847       91.23754
C        100.60738       53.02612       90.30165
C        102.28453       55.65531       90.24580
H        101.48807       54.22854       94.11628
H         99.05155       54.03390       92.39855
H        102.01866       53.44684       91.87954
H        101.41286       55.88633       92.17092
H        100.19878       55.73897       90.85284
H        100.55656       51.93962       90.52118
H         99.61158       53.35701       89.96060
H        101.33849       53.14070       89.47799
H        102.09411       55.20994       89.24973
H        102.36004       56.75518       90.11338
H        103.25539       55.28219       90.63733
N         98.73322       51.37266       92.93816
C         97.41390       51.83042       92.49028
C         96.88480       50.97286       91.34390
O         97.52685       50.00243       90.96627
C         96.44696       51.80900       93.69581
C         96.32429       50.45135       94.34051
O         96.70438       50.28038       95.62137
O         95.87923       49.50300       93.71403
H         98.79490       50.38467       93.23255
H         97.43541       52.86125       92.10942
H         95.43699       52.15645       93.39219
H         96.83164       52.52488       94.45474
N         95.69651       51.28918       90.74230
C         95.07944       50.46531       89.69938
C         93.83133       51.16307       89.14060
O         93.03620       51.60930       89.95748
C         94.63870       49.10153       90.29125
C         94.33960       48.12348       89.18449
C         93.02330       47.74604       88.87186
C         95.40542       47.59194       88.43552
C         92.78142       46.86126       87.81374
C         95.15986       46.70019       87.39012
C         93.84838       46.33829       87.07564
H         95.22078       52.15257       91.04474
H         95.83244       50.29976       88.90788
H         93.75686       49.26415       90.95080
H         95.42214       48.63747       90.92473
H         92.18738       48.15124       89.42769
H         96.42717       47.86951       88.66531
H         91.76665       46.58296       87.56156
H         95.98727       46.29505       86.82180
H         93.66052       45.65370       86.25876
N         93.53138       51.27138       87.80082
C         94.22286       50.60445       86.70471
C         95.61523       51.12134       86.41937
O         96.54973       50.33416       86.47364
C         93.28584       50.78561       85.49667
C         91.92811       50.89031       86.17066
C         92.27027       51.81168       87.33048
H         94.24241       49.52265       86.93514
H         93.46008       51.76843       85.00653
H         93.37539       49.99409       84.72200
H         91.11276       51.26257       85.51436
H         91.64495       49.89358       86.58023
H         92.45150       52.83961       86.94031
H         91.46433       51.84722       88.09426
N         95.82415       52.42746       86.07463
C         97.13730       52.96351       85.74609
C         97.13100       53.43530       84.29830
O         96.29326       54.26225       83.96573
C         97.54367       54.15079       86.64954
C         97.52986       53.87298       88.16150
C         96.20426       54.16964       88.81069
O         95.19354       53.57940       88.48454
O         96.12902       55.11802       89.76435
H         95.01656       53.06542       86.01546
H         97.91042       52.18372       85.89898
H         96.95452       55.07116       86.44358
H         98.59876       54.36649       86.36650
H         98.24614       54.58187       88.62681
H         97.87481       52.83714       88.37385
N         98.01984       52.99748       83.36165
C         99.08596       52.05922       83.63225
H         99.76314       52.47014       84.41148
H         98.66759       51.08557       83.96196
H         99.68150       51.89250       82.70929
H         97.94757       53.37288       82.40287
Ca       102.44368       63.07873       93.45003
O        101.37801       66.34840       94.41209
H        101.74659       67.18623       94.03448
H        100.52410       66.62052       94.83307
O        103.12349       60.89018       94.94491
H        103.49601       60.16486       95.50269
H        102.65624       60.42767       94.20370
O        102.32855       63.97505       96.38927
H        102.58131       64.72918       96.97890
H        102.24558       63.19803       96.99708
O        104.56132       65.12456       94.46159
H        105.26331       65.56226       93.91776
H        105.03181       64.81920       95.27752

Ca 1.0



