%chk=apoCaM-CA-Ng.loop2.water3.frame517.chk
%nprocshared=20
%mem=10GB
%nosave
#b3lyp/svp scf=(tight,noincore,xqc) Test 
#IOP(5/87=12) Density=Current Pop=(MK,readradii) iop(6/33=2) iop(6/42=6)

apoCaM-CA-Ng.loop2.water3.frame517 

   -2  1 
C         70.08375      100.86713       41.84335
C         69.37166      100.20034       40.70142
O         68.90190      100.89615       39.81265
H         70.94727      101.44781       41.45677
H         69.38644      101.55531       42.36569
H         70.46009      100.12409       42.57800
N         69.24474       98.84417       40.66210
C         68.55846       98.14139       39.58389
C         69.27961       98.36705       38.26873
O         70.45873       98.05749       38.17783
C         68.48874       96.63233       39.89478
C         67.70611       95.88597       38.84894
O         66.41477       96.19577       38.62257
O         68.23458       94.99421       38.20469
H         69.64025       98.29300       41.43999
H         67.51317       98.51987       39.52552
H         67.98292       96.48243       40.87296
H         69.51850       96.21633       39.97027
N         68.62057       98.88096       37.19266
C         69.28172       99.10277       35.91083
C         70.32250      100.21148       36.03232
O         70.17310      101.04483       36.91586
C         68.23925       99.49183       34.85258
H         67.61419       99.09013       37.28410
H         69.74510       98.14428       35.60128
H         68.69332       99.64400       33.85528
H         67.48303       98.68371       34.75915
H         67.72396      100.43194       35.14381
N         71.37326      100.36032       35.17058
C         71.70525       99.43226       34.09015
C         72.15031       98.06889       34.61365
O         72.44042       97.92314       35.79209
C         72.75995      100.04637       33.13817
C         74.01654      100.48967       33.84075
O         74.77044       99.60359       34.51385
O         74.35323      101.66344       33.80748
H         71.96013      101.20007       35.29427
H         70.79950       99.27354       33.47602
H         72.30387      100.93398       32.64500
H         73.02299       99.32025       32.33958
N         72.14977       97.00388       33.76161
C         72.48334       95.63392       34.13380
C         71.24964       94.74807       34.02536
O         70.15841       95.28668       33.92001
H         71.85058       97.15895       32.78712
H         72.87398       95.56538       35.16781
H         73.27369       95.29597       33.43344
N         71.29957       93.37833       34.00685
C         72.51938       92.57978       33.95862
C         73.23619       92.46203       35.30012
O         74.27557       91.82124       35.33401
C         72.19139       91.15913       33.43140
C         73.43866       90.39261       33.04903
N         73.77032       89.23737       33.67025
O         74.16116       90.82873       32.16427
H         70.39824       92.88794       33.88166
H         73.19510       93.04215       33.20662
H         71.57341       91.23881       32.51089
H         71.59639       90.61146       34.19595
H         73.18420       88.85311       34.42475
H         74.62684       88.73014       33.40082
N         72.77069       93.04183       36.44992
C         73.48369       92.89905       37.71589
C         74.89166       93.47867       37.69006
O         75.61023       93.30324       38.66383
H         71.89378       93.57922       36.44698
H         73.54544       91.81685       37.95854
H         72.91206       93.40078       38.52777
N         75.34785       94.19329       36.62135
C         76.67310       94.79614       36.51551
C         76.89300       95.75262       37.71224
O         75.69884       96.43553       37.97758
C         76.80305       95.50773       35.13407
C         76.74889       94.48669       33.97952
O         75.77934       96.46319       34.99761
H         74.70192       94.37063       35.84729
H         77.45799       94.00960       36.56584
H         77.79103       96.01156       35.07171
H         75.86545       96.86817       34.09571
H         77.56513       93.74182       34.09124
H         75.78048       93.94740       33.94190
H         76.88717       95.00430       33.00692
N         78.06079       96.64172       37.53652
C         78.53347       97.35121       38.74781
C         79.32204       98.57573       38.28560
O         80.29662       98.41367       37.56455
C         79.41316       96.47500       39.70739
C         79.85654       97.35260       40.91697
C         78.65058       95.22480       40.18550
C         80.66853       96.64370       41.99732
H         78.86575       96.10545       37.13549
H         77.66928       97.68612       39.35361
H         80.32471       96.12900       39.17273
H         78.96751       97.78837       41.39930
H         80.48471       98.18913       40.54826
H         79.27752       94.60652       40.85695
H         77.71608       95.50875       40.71591
H         78.41088       94.55873       39.33505
H         81.59038       96.20699       41.56341
H         80.95014       97.38349       42.77752
H         80.07050       95.85739       42.50053
N         78.97415       99.82833       38.70747
C         79.70878      101.04548       38.36395
C         80.34846      101.67499       39.58876
O         81.04271      102.66973       39.41459
C         78.76367      102.10707       37.76236
C         78.07519      101.66295       36.51292
O         76.73002      101.60834       36.47267
O         78.72464      101.39285       35.51604
H         78.17763       99.92162       39.34547
H         80.52308      100.81574       37.64103
H         79.34060      103.02780       37.51895
H         77.99743      102.37613       38.52216
N         80.17542      101.17895       40.84902
C         80.76313      101.80362       42.02125
C         79.68713      102.01270       43.08287
O         79.80186      101.44275       44.16262
C         81.94851      100.92529       42.47341
C         82.79812      101.58419       43.53163
C         83.40831      102.82814       43.27845
C         83.01383      100.95493       44.76763
C         84.20565      103.43515       44.24949
C         83.82067      101.56355       45.73455
C         84.41299      102.80345       45.47684
H         79.63494      100.31722       41.00429
H         81.17963      102.79563       41.75932
H         82.61050      100.75596       41.59558
H         81.57336       99.93056       42.80224
H         83.27272      103.33236       42.33018
H         82.56531       99.99247       44.98008
H         84.66566      104.39378       44.04613
H         83.98892      101.07268       46.68358
H         85.03618      103.27384       46.22555
N         78.59060      102.80907       42.86173
C         77.54141      103.05384       43.84604
C         76.75545      101.81810       44.26650
O         75.90638      101.93396       45.13750
C         76.59435      104.03784       43.13848
C         77.53576      104.77044       42.20790
C         78.39630      103.62679       41.68199
H         78.02412      103.52796       44.72893
H         75.89599      103.48409       42.47524
H         75.98352      104.67029       43.81638
H         77.04195      105.37338       41.41614
H         78.17539      105.43693       42.82911
H         77.84678      103.02661       40.92353
H         79.33177      104.04327       41.25775
N         76.93561      100.61883       43.64115
C         76.16458       99.43025       43.95677
C         76.78116       98.79521       45.18711
O         76.09293       98.64497       46.18786
C         76.14984       98.46252       42.74459
C         75.31155       98.93386       41.51536
C         75.65365      100.25996       40.85183
O         75.87268      100.37065       39.52531
O         75.60098      101.28739       41.49506
H         77.60628      100.54647       42.86596
H         75.10109       99.69111       44.16073
H         75.68409       97.50847       43.08094
H         77.18195       98.22752       42.44792
H         74.25804       99.01907       41.85133
H         75.36099       98.12677       40.75362
N         78.09809       98.43875       45.18924
C         78.78563       97.89512       46.34344
H         79.62241       98.57252       46.61854
H         78.12041       97.79073       47.22627
H         79.20303       96.89828       46.09189
H         78.65877       98.58293       44.33591
Ca        75.87524       98.65740       38.11318
O         73.55663      101.24555       37.81492
H         73.83871      101.84057       38.55371
H         72.57430      101.35073       37.78456
O         73.09911       97.80634       39.41968
H         72.93458       98.63511       38.90338
H         73.03704       97.07805       38.75196
O         77.39440       98.85574       35.09495
H         77.82990       98.49263       34.28425
H         78.09621       98.82309       35.78939

Ca 1.0



