%chk=apoCaM-CA-Ng.loop3.water5.frame350.chk
%nprocshared=20
%mem=10GB
%nosave
#b3lyp/svp scf=(tight,noincore,xqc) Test 
#IOP(5/87=12) Density=Current Pop=(MK,readradii) iop(6/33=2) iop(6/42=6)

apoCaM-CA-Ng.loop3.water5.frame350 

   0  1 
C         90.01208       69.51995       37.93154
C         91.48334       69.78771       37.79885
O         91.98527       69.76448       36.68778
H         89.43949       70.26600       37.34272
H         89.78641       68.50188       37.54903
H         89.68287       69.57452       38.99092
N         92.24176       70.03906       38.90259
C         93.68529       70.25791       38.89733
C         94.40742       69.00985       38.39930
O         95.25132       69.09115       37.51657
C         94.04012       71.54860       38.12125
C         95.48080       71.94414       38.29244
O         96.21420       72.04244       37.32208
O         95.96275       72.21824       39.51944
H         91.77445       70.05400       39.82221
H         93.98824       70.40710       39.95783
H         93.41793       72.38529       38.50478
H         93.81058       71.41675       37.04414
N         94.08543       67.79623       38.93554
C         94.72488       66.52916       38.56638
C         94.62408       66.16806       37.08432
O         95.26628       65.20765       36.68106
C         94.14013       65.37805       39.41688
C         92.65500       65.10267       39.09553
C         92.07297       64.04012       40.02927
C         90.60246       63.76092       39.68972
N         90.03593       62.77126       40.60435
H         93.36482       67.78764       39.67280
H         95.80557       66.63396       38.80939
H         94.24862       65.64881       40.49004
H         94.72386       64.44764       39.24120
H         92.56102       64.75704       38.04261
H         92.05457       66.02970       39.20969
H         92.14318       64.40482       41.07761
H         92.65764       63.09944       39.93483
H         90.52799       63.38305       38.64537
H         90.01460       64.70348       39.76320
H         89.03956       62.59334       40.34231
H         90.56997       61.87441       40.53979
H         90.06838       63.13207       41.58568
N         93.84816       66.87765       36.21733
C         93.78453       66.61896       34.78043
C         95.17792       66.69495       34.13677
O         96.12283       67.16945       34.75265
C         92.73216       67.59464       34.15492
C         92.94578       67.92239       32.71686
O         92.08079       67.63998       31.73010
O         93.94946       68.54115       32.43449
H         93.27392       67.63824       36.59403
H         93.43836       65.57404       34.62108
H         92.82326       68.58936       34.63972
H         91.70848       67.21476       34.35861
N         95.36772       66.16380       32.89096
C         96.65101       66.11332       32.20768
C         97.17245       67.48968       31.89168
O         98.26277       67.82064       32.33573
H         94.56340       65.73148       32.41162
H         96.53485       65.56535       31.24970
H         97.37995       65.54919       32.82986
N         96.42969       68.35532       31.14154
C         96.85043       69.71946       30.84771
C         96.07339       70.73293       31.68969
O         95.60636       71.73538       31.16818
C         96.81823       70.00193       29.32290
C         95.42225       69.94692       28.65212
N         95.49337       70.50373       27.30832
O         94.95950       68.62967       28.53912
H         95.51548       68.03644       30.80617
H         97.90455       69.85147       31.17356
H         97.49887       69.30059       28.79320
H         97.22727       71.02680       29.18579
H         95.87954       71.47211       27.34212
H         94.51744       70.56849       26.95004
N         95.96310       70.54130       33.03938
C         95.39660       71.48327       34.00332
C         93.91932       71.83292       33.87737
O         93.43695       72.55345       34.73963
H         96.37312       69.68374       33.43795
H         95.98536       72.42473       33.97593
H         95.52475       71.03439       35.01162
N         93.14442       71.42157       32.84081
C         91.75183       71.81598       32.66762
C         91.38722       71.59630       31.21646
O         91.36743       70.45928       30.76641
C         90.81653       70.99068       33.57944
C         89.36359       71.17521       33.19369
C         88.67624       72.36994       33.46110
C         88.70215       70.14320       32.50289
C         87.34711       72.52442       33.04367
C         87.38620       70.30673       32.07201
C         86.70219       71.49845       32.34095
O         85.43256       71.67021       31.92083
H         93.57520       70.87737       32.08888
H         91.64618       72.90310       32.88381
H         90.97730       71.21039       34.65572
H         91.08430       69.92583       33.42226
H         89.16684       73.17826       33.98823
H         89.21644       69.21918       32.26799
H         86.82112       73.44715       33.25301
H         86.90452       69.50861       31.52091
H         84.96472       70.99223       31.41159
N         91.13662       72.66295       30.41531
C         90.84938       72.53421       28.99854
C         92.11043       72.90674       28.23717
O         92.51219       72.13897       27.37660
C         89.58815       73.34751       28.59684
C         88.41462       73.03597       29.56813
C         89.20296       73.00358       27.14200
C         87.14337       73.84040       29.29278
H         91.21387       73.61160       30.81266
H         90.61877       71.47208       28.75642
H         89.82106       74.43228       28.67287
H         88.72702       73.29939       30.60038
H         88.17104       71.95107       29.54765
H         88.94010       71.92503       27.05751
H         88.33816       73.60284       26.79606
H         90.04200       73.21474       26.44902
H         86.39015       73.61702       30.07762
H         87.36323       74.92856       29.31671
H         86.69596       73.57054       28.31569
N         92.86984       73.98995       28.59168
C         94.18250       74.22897       27.99623
C         94.09073       74.70047       26.56077
O         95.09995       74.65465       25.87078
C         95.00103       75.23588       28.81658
O         95.16095       74.78278       30.13414
H         92.56315       74.59184       29.36861
H         94.73598       73.26841       28.02389
H         94.48586       76.21904       28.83743
H         96.00129       75.39997       28.35117
H         95.90106       74.12094       30.11768
N         92.92102       75.17334       26.04201
C         92.73994       75.58633       24.65812
C         92.98954       74.41367       23.72267
O         93.60114       74.57809       22.67721
C         93.59700       76.82076       24.32816
H         92.08742       75.22806       26.64616
H         91.67211       75.87720       24.54281
H         93.37064       77.64046       25.04287
H         94.68095       76.59121       24.39313
H         93.38101       77.17982       23.30057
N         92.56664       73.17089       24.09014
C         92.76449       71.96565       23.30188
C         91.43683       71.25598       23.18036
O         90.82246       70.97427       24.19972
C         93.78018       71.06183       23.99381
H         92.11015       73.06055       25.00653
H         93.17793       72.20544       22.29801
H         94.75091       71.59385       24.09424
H         93.42039       70.77731       24.99876
H         93.94274       70.14125       23.39334
N         90.91830       70.96189       21.95693
C         89.59546       70.38399       21.75050
C         88.54567       71.34176       22.29191
O         87.69591       70.94341       23.07844
C         89.46734       68.96234       22.36775
C         90.53250       67.94701       21.91963
C         90.46440       67.60770       20.45693
O         90.69476       68.45385       19.60886
O         90.18140       66.34724       20.07539
H         91.46558       71.20266       21.11714
H         89.42554       70.31120       20.65584
H         88.46059       68.55091       22.13380
H         89.53814       69.03429       23.47337
H         90.35903       67.01244       22.49779
H         91.54962       68.31445       22.17404
N         88.58150       72.65303       21.92228
C         87.64926       73.64938       22.40771
H         86.86867       73.21506       23.06674
H         88.20442       74.42005       22.98340
H         87.15073       74.13520       21.54386
H         89.32557       72.97473       21.28431
Ca        93.07596       68.35676       29.81945
O         89.41125       68.08209       28.80694
H         88.76506       67.49968       29.27887
H         88.97261       68.28974       27.94366
O         94.43336       65.80217       29.45844
H         95.33678       65.98444       29.09676
H         94.52578       64.95117       29.95402
O         91.33136       65.47630       29.70820
H         91.27567       65.01322       28.83505
H         91.36084       64.74548       30.37546
O         91.53497       69.44431       27.26190
H         92.26593       69.50460       26.59892
H         90.72162       69.68988       26.75466
O         92.72966       66.77552       27.06897
H         92.71524       67.06995       26.12401
H         93.00494       65.82596       27.02916

Ca 1.0



