%chk=apoCaM-CA-Ng.loop3.water2.frame978.chk
%nprocshared=20
%mem=10GB
%nosave
#b3lyp/svp scf=(tight,noincore,xqc) Test 
#IOP(5/87=12) Density=Current Pop=(MK,readradii) iop(6/33=2) iop(6/42=6)

apoCaM-CA-Ng.loop3.water2.frame978 

   0  1 
C         51.22662       34.11258       81.85751
C         51.18361       35.22107       82.87072
O         50.12211       35.78615       83.09085
H         52.24679       33.68013       81.77162
H         50.53754       33.30010       82.17317
H         50.91684       34.49231       80.86347
N         52.30364       35.55163       83.56739
C         52.30640       36.52274       84.65268
C         52.12937       37.94979       84.14034
O         52.97764       38.41296       83.38952
C         53.63023       36.38205       85.43046
C         53.64919       37.10760       86.73326
O         54.74901       37.02695       87.49705
O         52.68513       37.74513       87.12098
H         53.16674       35.01789       83.37713
H         51.48562       36.24672       85.34526
H         54.48028       36.71800       84.79863
H         53.79842       35.31561       85.67859
N         51.04886       38.70798       84.50069
C         50.84800       40.07400       84.01526
C         51.86595       41.08074       84.55879
O         51.93279       42.17304       84.01567
C         49.39612       40.56615       84.25286
C         48.96307       40.71530       85.72729
C         47.50531       41.20776       85.79504
C         47.00249       41.36326       87.23754
N         45.61708       41.83963       87.25503
H         50.32139       38.27270       85.07889
H         50.97481       40.03574       82.90998
H         48.70652       39.85034       83.75330
H         49.27638       41.55247       83.75233
H         49.62303       41.44529       86.24430
H         49.03554       39.73964       86.25013
H         46.84888       40.48042       85.26815
H         47.42885       42.19113       85.28105
H         47.64519       42.09018       87.78147
H         47.05854       40.38249       87.76041
H         44.99316       41.15796       86.76446
H         45.29576       41.93656       88.24534
H         45.54992       42.77317       86.78742
N         52.65819       40.80474       85.63783
C         53.65538       41.73406       86.17958
C         55.05014       41.11607       86.27164
O         55.96693       41.81777       86.68159
C         53.20749       42.26324       87.56290
C         53.04409       41.20531       88.62323
O         52.20653       40.32819       88.50087
O         53.78846       41.25400       89.74393
H         52.52282       39.91250       86.11843
H         53.74431       42.62270       85.51793
H         52.24134       42.79902       87.45062
H         53.95976       43.00328       87.91651
N         55.30049       39.82408       85.91897
C         56.60969       39.20009       86.01178
C         57.13767       39.00401       87.42673
O         58.22447       38.45203       87.52806
H         54.54845       39.24986       85.52196
H         57.33972       39.79155       85.41797
H         56.54755       38.18835       85.55303
N         56.46695       39.40409       88.55528
C         56.99727       39.20015       89.90541
C         55.98085       38.40674       90.78467
O         55.41739       37.36395       90.03944
C         57.32032       40.56737       90.55322
C         58.22996       41.42119       89.70272
N         57.83839       42.65500       89.30357
O         59.33438       41.00455       89.38607
H         55.56095       39.87775       88.47232
H         57.94279       38.61526       89.85407
H         57.83119       40.42294       91.52608
H         56.37169       41.11278       90.74145
H         56.91717       43.03106       89.57261
H         58.46150       43.24499       88.73261
N         56.64465       37.85672       91.99417
C         55.68170       37.27635       92.94612
C         55.25621       35.87331       92.57018
O         55.81990       35.28571       91.65646
H         57.10735       38.64174       92.50222
H         54.78768       37.93771       93.00123
H         56.12677       37.23091       93.96453
N         54.19325       35.30123       93.21117
C         53.54201       34.06001       92.76886
C         53.01100       34.23257       91.34291
O         53.36837       35.19025       90.70857
C         52.34796       33.72445       93.70549
C         52.70929       33.32347       95.11071
C         52.07288       33.92995       96.20615
C         53.61569       32.27338       95.33823
C         52.32606       33.47832       97.50532
C         53.87924       31.83599       96.63688
C         53.22792       32.42593       97.72345
O         53.46442       31.96331       98.96707
H         53.77084       35.82483       93.99419
H         54.25917       33.21441       92.77208
H         51.81926       32.83235       93.32868
H         51.61704       34.56447       93.69922
H         51.35329       34.72546       96.05514
H         54.10858       31.77722       94.51302
H         51.80824       33.93511       98.33907
H         54.57484       31.02161       96.79466
H         53.00661       32.31656       99.74276
N         52.12735       33.37842       90.76783
C         51.48565       33.61369       89.47468
C         50.65405       34.95826       89.50070
O         51.34234       36.06311       88.91753
C         52.47259       33.47972       88.27107
C         51.75691       33.52030       86.89074
C         53.32746       32.20477       88.39199
C         50.80044       32.35862       86.59305
H         51.83208       32.53528       91.27601
H         50.77064       32.76862       89.38757
H         53.17890       34.33783       88.29718
H         52.52638       33.50653       86.09173
H         51.19576       34.47002       86.79747
H         52.69275       31.29535       88.42390
H         54.02949       32.12977       87.53440
H         53.93693       32.22932       89.31941
H         49.97106       32.29982       87.31931
H         50.35609       32.50616       85.58598
H         51.33742       31.38926       86.58637
N         49.38390       34.76727       88.77047
C         48.40827       35.86907       88.78880
C         47.05835       35.53015       89.43309
O         46.22379       36.42543       89.46492
C         48.16490       36.30341       87.33464
O         49.36828       36.66453       86.72291
H         49.01205       33.80752       88.61941
H         48.82962       36.73287       89.34544
H         47.44807       37.15327       87.27205
H         47.72584       35.45792       86.76089
H         49.66881       37.49920       87.16640
N         46.73399       34.30132       89.94610
C         45.40731       34.02469       90.50585
C         45.16178       34.85455       91.76330
O         46.13104       35.34845       92.32372
C         45.29094       32.53090       90.85081
H         47.41455       33.53186       89.92227
H         44.65787       34.26639       89.72385
H         46.05048       32.25078       91.61256
H         44.29415       32.27449       91.25224
H         45.45836       31.91608       89.94107
N         43.92494       35.06246       92.31212
C         42.64393       34.73281       91.68824
C         41.52600       34.70009       92.73298
O         41.44206       35.63764       93.51504
C         42.28513       35.81491       90.66160
H         43.89859       35.63576       93.17028
H         42.70524       33.77827       91.14270
H         41.31044       35.57155       90.18404
H         42.19980       36.80921       91.15083
H         43.04973       35.88342       89.86313
N         40.56061       33.73059       92.78217
C         40.45079       32.62839       91.83148
C         41.52004       31.56325       92.02043
O         41.65915       30.72942       91.13592
C         39.04076       31.97306       91.82766
C         38.63243       31.17333       93.08544
C         38.34693       32.02582       94.28684
O         39.05177       31.85610       95.42131
O         37.46028       32.86490       94.24668
H         39.81117       33.87297       93.47023
H         40.56438       33.07249       90.81761
H         39.02731       31.25269       90.97995
H         38.26775       32.74142       91.60649
H         39.41335       30.42015       93.32287
H         37.69454       30.62308       92.85535
N         42.28183       31.49662       93.15049
C         43.29227       30.47936       93.36639
H         44.26957       30.96784       93.55888
H         43.01470       29.86594       94.24902
H         43.40870       29.80154       92.49423
H         42.13227       32.17243       93.91283
Ca        53.07237       37.42798       89.83290
O         51.13367       37.47408       92.19866
H         50.39661       36.82317       92.08325
H         51.73260       37.05664       92.86721
O         49.78480       39.14986       89.74075
H         49.74668       39.30615       88.76421
H         48.87387       39.36926       90.05948

Ca 1.0



