%chk=apoCaM-CA-Ng.loop1.water2.frame1064.chk
%nprocshared=20
%mem=10GB
%nosave
#b3lyp/svp scf=(tight,noincore,xqc) Test 
#IOP(5/87=12) Density=Current Pop=(MK,readradii) iop(6/33=2) iop(6/42=6)

apoCaM-CA-Ng.loop1.water2.frame1064 

   0  1 
C          1.17297       63.05285       33.08519
C          0.94701       62.25397       34.33294
O          0.72153       62.85779       35.37259
H          2.06750       63.69861       33.22092
H          1.33999       62.39690       32.20654
H          0.29007       63.69724       32.89302
N          1.03909       60.89035       34.32108
C          0.89333       60.08360       35.52787
C          2.25613       59.57110       35.94993
O          2.43882       58.38538       36.19280
C         -0.13223       58.95377       35.31278
C         -1.49111       59.49012       34.96422
O         -2.01536       59.19119       33.90311
O         -2.14505       60.28982       35.82821
H          1.28579       60.41180       33.44129
H          0.54454       60.71442       36.37362
H         -0.22592       58.35112       36.24214
H          0.22719       58.28588       34.49802
N          3.27157       60.46618       36.07579
C          4.59257       60.14663       36.59466
C          4.50242       59.73106       38.06531
O          4.97946       58.64607       38.36230
C          5.57209       61.32680       36.36278
C          5.81353       61.53090       34.85219
C          6.71099       62.73728       34.55801
C          6.99641       62.83704       33.05042
N          7.80021       64.01813       32.74001
H          3.08579       61.44127       35.79784
H          5.01684       59.29139       36.01934
H          6.55065       61.09522       36.83713
H          5.19166       62.26486       36.81286
H          4.84952       61.68805       34.32194
H          6.28855       60.61023       34.44631
H          7.67399       62.63668       35.10364
H          6.19617       63.66102       34.90284
H          6.03882       62.89256       32.48573
H          7.54240       61.92436       32.72076
H          7.27098       64.88479       32.99051
H          8.70440       63.99005       33.26444
H          8.00348       64.03243       31.71414
N          3.89353       60.46061       39.05616
C          3.20834       61.73717       38.88530
C          1.70939       61.59274       39.10257
O          1.24696       60.54855       39.54648
C          3.84348       62.82092       39.77537
C          3.79190       62.49790       41.24456
O          2.60935       62.35238       41.87001
O          4.82694       62.38635       41.88177
H          3.87934       60.04809       40.00313
H          3.31007       62.09682       37.85775
H          3.33125       63.78716       39.60035
H          4.90516       62.94434       39.46746
N          0.88087       62.59713       38.70509
C         -0.57068       62.51392       38.74044
C         -1.14243       62.64821       40.13051
O         -0.40275       62.78406       41.08936
H          1.29519       63.43266       38.26393
H         -0.91049       61.57277       38.25674
H         -0.98027       63.36443       38.15522
N         -2.50200       62.66626       40.27821
C         -3.18000       62.90253       41.55916
C         -4.51222       63.64648       41.33294
O         -4.93718       63.75621       40.19562
C         -3.39211       61.54781       42.27085
C         -2.07685       60.92967       42.64458
O         -1.25124       61.56426       43.50306
O         -1.74017       59.86428       42.15586
H         -3.06730       62.55261       39.42598
H         -2.54026       63.56434       42.17074
H         -3.96467       60.87392       41.59594
H         -3.96957       61.63751       43.20112
N         -5.24792       64.22077       42.34185
C         -4.88674       64.28747       43.74698
C         -3.66289       65.13124       44.00118
O         -3.14157       65.74911       43.07769
H         -6.14023       64.67089       42.07805
H         -4.75849       63.28043       44.16942
H         -5.72043       64.75607       44.31556
N         -3.16290       65.22934       45.26201
C         -2.02039       66.07857       45.58550
C         -0.75475       65.65233       44.85498
O         -0.67914       64.54498       44.34456
C         -1.77391       66.16569       47.11112
C         -1.38143       64.82056       47.74032
O         -2.93678       66.65164       47.73162
H         -3.65000       64.71917       46.01588
H         -2.28209       67.10148       45.23127
H         -0.93547       66.88382       47.27589
H         -2.65011       67.14161       48.54612
H         -0.43780       64.44438       47.29525
H         -1.22064       64.95341       48.83020
H         -2.17427       64.05703       47.60364
N          0.25590       66.55926       44.72203
C          1.49940       66.36453       43.98423
C          2.43414       65.41789       44.71933
O          2.11482       64.24807       44.88599
C          1.27744       65.92024       42.50135
C          0.22964       66.81916       41.79332
C          2.62414       65.95610       41.74736
C         -0.14755       66.33229       40.39102
H          0.10939       67.49746       45.12390
H          1.99038       67.36321       43.94318
H          0.89787       64.87620       42.48888
H          0.59461       67.86696       41.74046
H         -0.71236       66.81281       42.37790
H          2.51419       65.60665       40.70556
H          3.03010       66.99063       41.72841
H          3.37269       65.29478       42.23068
H         -0.94450       66.98242       39.97454
H          0.71088       66.36119       39.69194
H         -0.54212       65.29949       40.44272
N          3.65531       65.86782       45.12940
C          4.68048       64.99600       45.69141
C          4.34386       64.41923       47.06173
O          5.10473       63.57741       47.52016
C          6.04985       65.72820       45.77930
C          6.04503       66.89538       46.77985
O          6.41749       66.21600       44.51510
H          3.89722       66.84990       44.93322
H          4.81181       64.16837       44.97111
H          6.83022       65.01283       46.13269
H          6.69922       65.43111       43.97596
H          5.30753       67.67337       46.49594
H          5.80554       66.53879       47.80406
H          7.05023       67.36553       46.81018
N          3.30718       64.88055       47.82178
C          3.14678       64.46858       49.21487
C          2.78319       62.99471       49.30264
O          1.67361       62.63949       48.93222
C          2.09150       65.36033       49.92719
C          1.97615       65.06428       51.42731
O          2.38457       66.72422       49.74212
H          2.69626       65.61965       47.44533
H          4.12282       64.64541       49.72111
H          1.10209       65.17201       49.45986
H          3.30154       66.88851       50.08531
H          1.19932       65.71976       51.87608
H          1.68680       64.00768       51.60370
H          2.94423       65.26426       51.93432
N          3.69060       62.07462       49.75308
C          3.41196       60.64481       49.85579
C          2.92062       60.07961       48.53500
O          1.79599       59.60239       48.46006
C          2.46970       60.33794       51.04642
C          3.21886       60.50240       52.38142
C          2.37876       60.04669       53.58199
C          3.24661       59.97965       54.84975
N          2.47253       59.51624       56.00043
H          4.63927       62.39258       50.00200
H          4.35723       60.09740       50.07087
H          2.17754       59.26562       50.98693
H          1.54443       60.95253       51.00829
H          3.55234       61.55326       52.52392
H          4.11926       59.84938       52.33791
H          1.98236       59.02577       53.38778
H          1.52270       60.74100       53.72651
H          3.67878       60.98012       55.07109
H          4.08614       59.26809       54.67550
H          2.05913       58.57555       55.80354
H          3.10748       59.43538       56.82770
H          1.71251       60.19955       56.21971
N          3.76316       60.04123       47.46219
C          3.40212       59.42464       46.18936
C          3.52804       60.40981       44.99787
O          2.96180       59.88061       43.83868
C          4.15075       58.09075       45.97027
C          3.80820       57.05452       47.04999
C          4.44866       55.73145       46.74040
O          4.15719       55.13248       45.71676
O          5.33771       55.19251       47.59570
H          4.71466       60.40660       47.59198
H          2.32413       59.15107       46.19871
H          5.24675       58.22281       45.97441
H          3.84020       57.68166       44.98326
H          2.70802       56.90666       47.10376
H          4.16632       57.41795       48.03759
N          4.78529       61.11912       44.68958
C          6.07130       60.49173       45.00072
H          6.88683       61.14615       44.62512
H          6.23142       60.40896       46.09208
H          6.18456       59.51547       44.49130
H          4.74783       62.05239       45.13732
Ca         0.86967       60.81772       43.78114
O          0.30318       57.94652       43.63262
H          0.40051       58.40728       42.76166
H          1.10720       57.37324       43.69519
O          0.29951       61.36860       46.64156
H          0.44857       62.34255       46.54970
H         -0.54843       61.29020       47.14605

Ca 1.0



