%chk=apoCaM-CA-Ng.loop1.water3.frame205.chk
%nprocshared=20
%mem=10GB
%nosave
#b3lyp/svp scf=(tight,noincore,xqc) Test 
#IOP(5/87=12) Density=Current Pop=(MK,readradii) iop(6/33=2) iop(6/42=6)

apoCaM-CA-Ng.loop1.water3.frame205 

   0  1 
C         11.86275       15.17644       56.07209
C         13.03388       14.42250       56.63066
O         13.52815       13.50821       55.98708
H         10.99729       15.07817       56.76179
H         12.12265       16.25161       55.97264
H         11.57304       14.78184       55.07583
N         13.52922       14.76596       57.84919
C         14.65775       14.09202       58.48434
C         14.40204       12.59521       58.65547
O         15.23345       11.81485       58.21980
C         15.07282       14.79748       59.80042
C         14.02883       14.85937       60.88469
O         14.29688       14.34505       62.09550
O         12.96979       15.43845       60.70745
H         13.08263       15.56052       58.32854
H         15.54135       14.20473       57.81874
H         15.36349       15.84315       59.55665
H         15.97773       14.28797       60.20035
N         13.24907       12.12126       59.20841
C         12.92617       10.69112       59.32408
C         12.93130       10.01930       57.95275
O         12.26530       10.54548       57.07133
C         11.50364       10.48402       59.90502
C         11.34485       10.68818       61.41974
C         11.64473       12.10264       61.92313
C         11.28288       12.29282       63.40671
N         12.04378       11.41259       64.29536
H         12.55011       12.81609       59.50567
H         13.64068       10.19624       59.99873
H         11.22255        9.41906       59.74598
H         10.77014       11.10425       59.34288
H         11.99830        9.95619       61.93769
H         10.28743       10.44603       61.66540
H         11.03685       12.82823       61.33986
H         12.72042       12.32597       61.77910
H         10.19446       12.11313       63.55049
H         11.49404       13.35019       63.68012
H         13.06709       11.57069       64.16904
H         11.79259       11.63254       65.28567
H         11.81095       10.40978       64.11934
N         13.56060        8.83205       57.66392
C         14.37429        7.98601       58.54641
C         13.65116        7.54355       59.81607
O         14.08951        7.89086       60.90329
C         15.74932        8.61395       58.81865
C         16.57619        8.75263       57.57555
O         16.14554        8.26451       56.39525
O         17.66851        9.29219       57.64034
H         13.42752        8.46825       56.70671
H         14.61777        7.03799       58.01390
H         16.32485        7.95800       59.50558
H         15.62201        9.60565       59.28065
N         12.60177        6.67454       59.79253
C         12.03542        6.11681       58.58069
C         10.52914        6.11771       58.65993
O          9.96241        7.17575       58.89153
H         12.24399        6.32161       60.69472
H         12.45314        5.10675       58.44249
H         12.32536        6.68468       57.68302
N          9.77804        4.99908       58.44104
C         10.33468        3.70547       58.04406
C         11.13983        3.04037       59.15813
O         11.12366        3.50808       60.28902
C          9.20834        2.77590       57.52887
C          8.15455        2.46899       58.56201
O          8.47461        1.80642       59.68952
O          6.99587        2.80341       58.37039
H          8.75192        5.10969       58.47452
H         11.00857        3.87954       57.17659
H          9.63547        1.82008       57.16069
H          8.72473        3.27700       56.66017
N         11.85319        1.90784       58.89305
C         12.52454        1.12995       59.92162
C         13.75453        1.75979       60.55033
O         14.23428        1.18269       61.51651
H         11.84555        1.52829       57.93418
H         12.86045        0.16354       59.48520
H         11.78020        0.89321       60.71146
N         14.37539        2.87067       60.05237
C         15.61410        3.38121       60.64709
C         15.35889        3.89486       62.05280
O         14.54534        4.79191       62.22791
C         16.27134        4.49755       59.79979
C         16.70763        3.98011       58.42342
O         17.41379        4.96161       60.47705
H         13.99798        3.32099       59.20675
H         16.35546        2.55069       60.68769
H         15.54227        5.33005       59.68063
H         17.64163        5.84839       60.09390
H         17.19848        4.79994       57.85792
H         17.44058        3.15167       58.53989
H         15.84436        3.61664       57.83163
N         16.06005        3.37621       63.10194
C         15.92011        3.84786       64.47687
C         16.31159        5.31522       64.53529
O         15.47247        6.13802       64.87632
C         16.78871        2.97870       65.44951
C         16.28052        1.50873       65.45480
C         16.78362        3.55889       66.88036
C         17.18750        0.54374       66.22221
H         16.74167        2.62974       62.90134
H         14.85503        3.74747       64.78851
H         17.83932        2.99069       65.08395
H         16.23052        1.11745       64.41879
H         15.25299        1.46668       65.87768
H         17.44816        2.97984       67.55177
H         17.17754        4.59637       66.89036
H         15.75574        3.56189       67.30000
H         17.24257        0.79350       67.29971
H         16.77996       -0.48600       66.13850
H         18.20949        0.55308       65.78654
N         17.58033        5.71163       64.23016
C         17.99693        7.11097       64.29169
C         17.33167        7.90409       63.17790
O         16.79536        7.30388       62.25552
C         19.54207        7.23158       64.13202
C         20.31000        6.46564       65.21504
O         19.93046        8.58052       64.19478
H         18.26623        4.98909       63.96821
H         17.70258        7.52082       65.28405
H         19.81142        6.80679       63.13404
H         20.75297        8.67582       63.64648
H         21.40149        6.58553       65.04473
H         20.05974        6.86514       66.21990
H         20.08683        5.38048       65.19113
N         17.38448        9.26729       63.17348
C         17.00159       10.07178       62.01721
C         18.20034       10.87175       61.54488
O         19.17738       10.96772       62.27902
C         15.77389       10.96674       62.30287
C         16.00167       11.96870       63.44221
O         14.64339       10.17599       62.56786
H         17.77509        9.75074       63.99640
H         16.73551        9.39995       61.18975
H         15.55227       11.55020       61.38177
H         14.80802        9.67133       63.40607
H         16.84887       12.64476       63.20359
H         15.09427       12.58373       63.58746
H         16.20457       11.44570       64.39856
N         18.23725       11.41474       60.29286
C         19.42959       12.10139       59.81302
C         19.45946       12.17655       58.29290
O         20.39609       11.64945       57.71079
C         19.54550       13.49898       60.47120
C         20.91894       14.16549       60.26345
C         22.03260       13.45532       61.05881
C         23.39389       14.12900       60.85715
N         24.42393       13.46388       61.65690
H         17.44610       11.24891       59.65349
H         20.29613       11.47357       60.10703
H         19.37268       13.43468       61.56723
H         18.74575       14.15089       60.05841
H         20.85314       15.20989       60.63989
H         21.16340       14.20379       59.18038
H         22.13355       12.39806       60.74506
H         21.77152       13.47979       62.14044
H         23.33452       15.19916       61.15453
H         23.67121       14.07475       59.78094
H         25.34740       13.91936       61.47674
H         24.19802       13.54936       62.67488
H         24.48975       12.45264       61.39689
N         18.47278       12.79823       57.58300
C         18.45451       12.86557       56.12163
C         18.45948       14.30768       55.67076
O         17.55955       15.05529       56.03043
C         17.20987       12.13804       55.57218
C         17.06423       12.20449       54.03328
C         18.22751       11.62001       53.26556
O         18.49730       10.30023       53.31497
O         18.90227       12.33980       52.54736
H         17.69229       13.22884       58.09968
H         19.34251       12.35108       55.69505
H         16.29645       12.59135       56.01034
H         17.24976       11.08814       55.90588
H         16.93528       13.26890       53.74237
H         16.13802       11.66930       53.73190
N         19.43196       14.75468       54.83109
C         19.43611       16.10180       54.30935
H         20.30462       16.23957       53.63104
H         18.50480       16.28140       53.72978
H         19.50558       16.83270       55.14130
H         20.18004       14.11297       54.52729
Ca        17.14093        9.01799       54.54731
O         20.08381        6.41885       56.37908
H         20.87760        6.86293       56.77000
H         20.45819        5.69121       55.82171
O         20.23331        9.49542       55.65128
H         20.66708        9.32565       56.52468
H         20.93613        9.93020       55.10623
O         17.42063        5.33308       55.05161
H         17.70658        4.40911       55.26452
H         16.45664        5.35294       55.27699

Ca 1.0



