%chk=apoCaM-CA-Ng.loop4.water5.frame860.chk
%nprocshared=20
%mem=10GB
%nosave
#b3lyp/svp scf=(tight,noincore,xqc) Test 
#IOP(5/87=12) Density=Current Pop=(MK,readradii) iop(6/33=2) iop(6/42=6)

apoCaM-CA-Ng.loop4.water5.frame860 

   -3  1 
C         59.02147       84.08687       66.55995
C         58.72535       84.89877       65.33512
O         59.65726       85.26816       64.63544
H         59.67659       84.66998       67.23570
H         58.09267       83.82527       67.10929
H         59.53640       83.14763       66.26808
N         57.43704       85.19910       65.00204
C         57.04868       85.96404       63.82366
C         57.57056       85.27186       62.57245
O         58.28693       85.87889       61.78673
C         57.51318       87.43678       63.96681
C         56.97206       88.36871       62.91061
O         56.22090       87.97153       62.03320
O         57.31003       89.67149       62.94932
H         56.67648       84.84675       65.60364
H         55.93563       85.97126       63.78300
H         58.62224       87.48808       63.95272
H         57.16310       87.82321       64.94840
N         57.27547       83.95868       62.35592
C         57.79321       83.21880       61.20856
C         57.27622       83.80800       59.90243
O         56.09774       84.13138       59.84721
C         57.48199       81.68919       61.26674
C         55.96687       81.36268       61.39715
C         58.30334       81.03252       62.39201
C         55.64629       79.88608       61.15522
H         56.69825       83.47249       63.05659
H         58.89034       83.31374       61.24994
H         57.85047       81.25970       60.30745
H         55.38851       81.92391       60.63791
H         55.58969       81.65238       62.40063
H         57.99960       81.41832       63.38723
H         58.19517       79.93032       62.38258
H         59.38443       81.24520       62.24412
H         56.14563       79.22483       61.88983
H         54.55082       79.72769       61.24717
H         55.95619       79.59640       60.12823
N         58.03847       83.95658       58.77562
C         59.44435       83.58897       58.59146
C         60.25101       84.81762       58.14776
O         61.34982       84.66489       57.63418
C         59.48765       82.46269       57.53061
C         60.82453       81.76912       57.39756
O         60.95179       80.87060       56.58187
O         61.86731       82.08537       58.19170
H         57.56249       84.34089       57.94255
H         59.90582       83.16502       59.49716
H         59.17337       82.87274       56.54610
H         58.76169       81.67215       57.82363
N         59.75536       86.07890       58.30982
C         60.37724       87.27710       57.77280
C         61.79262       87.51839       58.23975
O         62.66031       87.69492       57.39609
H         58.86244       86.21677       58.80491
H         59.76439       88.15377       58.07595
H         60.36057       87.22446       56.66252
N         62.09526       87.58829       59.56489
C         63.41218       87.98691       60.05910
C         64.55694       87.17971       59.46369
O         65.45732       87.79475       58.90674
C         63.46566       88.02286       61.60569
C         63.28098       86.69191       62.28919
O         62.14301       85.99066       62.13122
O         64.14897       86.26098       63.03150
H         61.33858       87.41142       60.24209
H         63.57386       89.04295       59.74123
H         62.67598       88.71356       61.97170
H         64.44823       88.45284       61.90732
N         64.60545       85.81747       59.51817
C         65.74579       85.07896       58.98786
C         67.00233       85.27018       59.82486
O         68.05839       84.81330       59.41319
H         63.81697       85.29247       59.92388
H         65.92421       85.39980       57.93819
H         65.52112       83.99052       58.97636
N         66.94321       85.87009       61.04854
C         68.05162       86.02615       61.97738
C         68.67389       84.69778       62.37051
O         69.85151       84.66524       62.70077
C         69.07560       87.08795       61.52837
C         68.38587       88.43977       61.26861
C         69.34764       89.58845       61.09251
N         68.86490       90.83314       60.87406
O         70.55555       89.41390       61.16776
H         66.03690       86.19518       61.40131
H         67.61386       86.42175       62.92268
H         69.63035       86.76191       60.62191
H         69.80213       87.21778       62.36173
H         67.73827       88.69213       62.13588
H         67.74796       88.35380       60.36294
H         67.84910       90.99793       60.81253
H         69.50476       91.63469       60.77300
N         67.90226       83.57445       62.44990
C         68.38173       82.31108       63.00388
C         67.60769       81.94233       64.26001
O         68.15080       81.19158       65.06030
C         68.36909       81.15991       61.96590
C         66.95489       80.82996       61.46093
C         69.29031       81.48728       60.78312
H         66.92630       83.63300       62.13342
H         69.43755       82.43440       63.33391
H         68.77457       80.24838       62.46043
H         66.99561       79.97098       60.75793
H         66.29460       80.54297       62.30611
H         66.50498       81.69383       60.92895
H         68.93023       82.38337       60.23656
H         70.32355       81.67995       61.14361
H         69.32620       80.63159       60.07595
N         66.34317       82.40918       64.50449
C         65.63472       82.16473       65.75198
C         65.15178       83.47821       66.33903
O         65.25532       84.51247       65.68952
C         64.47336       81.15741       65.56787
C         63.18994       81.72652       64.99386
N         63.12099       82.25490       63.75105
O         62.18021       81.69871       65.68300
H         65.86274       82.97815       63.80114
H         66.34036       81.69824       66.47422
H         64.22244       80.76471       66.57850
H         64.82618       80.29095       64.96704
H         63.93656       82.28202       63.12895
H         62.22811       82.63664       63.40366
N         64.61946       83.51200       67.58410
C         64.14059       84.74535       68.19234
C         64.07259       84.55380       69.68018
O         63.47601       83.58497       70.12392
C         62.76358       85.15495       67.62585
C         62.35107       86.52099       68.13466
C         61.21034       86.68423       68.93892
C         63.11669       87.65268       67.80040
C         60.84906       87.95503       69.40396
C         62.75495       88.91886       68.26578
C         61.62281       89.07632       69.06922
O         61.28998       90.30647       69.51047
H         64.61853       82.63526       68.13007
H         64.88023       85.54887       67.98468
H         62.01713       84.37835       67.90423
H         62.79772       85.20369       66.51684
H         60.60372       85.83102       69.21039
H         63.99586       87.55649       67.17632
H         59.96911       88.06898       70.02411
H         63.35690       89.77898       68.00008
H         60.51601       90.46289       70.06985
N         64.69214       85.43249       70.51056
C         64.80525       85.22700       71.93994
C         63.96715       86.27712       72.64571
O         64.46212       87.37962       72.83288
C         66.31827       85.26068       72.28327
C         66.70059       84.89741       73.72535
C         66.29451       85.93171       74.73195
O         66.73322       87.06895       74.65548
O         65.47287       85.60108       75.74526
H         65.12807       86.27834       70.11014
H         64.44890       84.22107       72.21055
H         66.75749       86.24743       72.01277
H         66.80667       84.49966       71.63402
H         67.80842       84.80744       73.77523
H         66.26446       83.90878       73.98228
N         62.66038       86.08205       73.01139
C         61.85675       84.87439       72.78949
C         62.40874       83.67355       73.53130
O         62.65447       83.75931       74.72657
C         60.40929       85.07993       73.27764
C         59.59733       86.04734       72.40583
C         58.21833       86.16187       72.98000
O         57.16478       85.64193       72.32385
O         58.05699       86.66301       74.08077
H         62.19043       86.88262       73.46341
H         61.80166       84.64973       71.70292
H         60.42343       85.41628       74.33822
H         59.87638       84.10131       73.23225
H         59.53198       85.62465       71.37957
H         60.06144       87.05379       72.34843
N         62.57974       82.49226       72.87378
C         63.08804       81.30502       73.51909
H         64.11541       81.49151       73.89471
H         62.42216       81.01522       74.35857
H         63.12214       80.46773       72.78830
H         62.31872       82.41850       71.88079
Ca        55.21015       85.41664       73.43228
O         56.76771       84.88846       76.59686
H         57.39273       84.95245       75.83297
H         57.23325       85.35345       77.33655
O         52.56149       86.60570       73.37089
H         51.77751       86.22212       72.90417
H         52.61902       87.53779       73.04223
O         54.04862       86.31517       76.47277
H         53.93271       85.58051       77.12637
H         53.73793       87.12440       76.95107
O         53.19926       83.35439       75.32006
H         52.36013       83.83668       75.52959
H         53.27953       82.67406       76.03510
O         55.35378       88.39655       73.94891
H         54.88938       88.47771       74.81932
H         56.26711       88.73627       74.12250

Ca 1.0



