%chk=apoCaM-CA-Ng.loop2.water2.frame954.chk
%nprocshared=20
%mem=10GB
%nosave
#b3lyp/svp scf=(tight,noincore,xqc) Test 
#IOP(5/87=12) Density=Current Pop=(MK,readradii) iop(6/33=2) iop(6/42=6)

apoCaM-CA-Ng.loop2.water2.frame954 

   -2  1 
C         74.66268       96.36607       30.25972
C         73.24739       95.90114       30.42791
O         72.60438       95.60574       29.43080
H         75.25410       95.56288       29.77052
H         74.68545       97.27526       29.62516
H         75.13255       96.59853       31.23848
N         72.70585       95.77441       31.67177
C         71.37048       95.25016       31.91395
C         71.54254       93.90231       32.58481
O         71.09840       93.69604       33.70617
C         70.55628       96.28236       32.72972
C         69.11169       95.90765       32.95520
O         68.64762       94.86487       32.52056
O         68.31288       96.75108       33.63634
H         73.28531       96.00514       32.49431
H         70.83100       95.07710       30.95651
H         70.55955       97.24582       32.17488
H         71.04484       96.44863       33.71434
N         72.22613       92.92934       31.91534
C         72.49625       91.60841       32.46146
C         73.38716       91.72619       33.69095
O         74.47510       92.26996       33.55728
C         73.20291       90.73928       31.41341
H         72.56773       93.14529       30.96585
H         71.52349       91.13120       32.67697
H         72.56284       90.64081       30.51116
H         74.17111       91.19524       31.11204
H         73.39838       89.72466       31.81995
N         73.02667       91.29027       34.93369
C         71.76131       90.62838       35.24932
C         71.43072       90.71360       36.73342
O         72.25525       91.14793       37.52638
C         71.73502       89.17330       34.71495
C         72.84801       88.31891       35.25507
O         72.56094       87.19110       35.92812
O         74.01380       88.61010       35.03785
H         73.69279       91.48523       35.69713
H         70.94478       91.21712       34.78162
H         71.83159       89.16110       33.61339
H         70.75764       88.70576       34.95879
N         70.16481       90.42842       37.15289
C         69.69997       90.72249       38.49710
C         68.97041       89.56921       39.13336
O         67.77652       89.71140       39.35832
H         69.46592       90.11540       36.46122
H         68.97929       91.56539       38.40215
H         70.51210       91.06537       39.17125
N         69.56525       88.40614       39.51471
C         70.97150       88.05910       39.35346
C         71.74025       88.46010       40.60380
O         71.29987       88.12246       41.69441
C         71.04663       86.53252       39.12950
C         72.40762       85.99751       38.77411
N         72.57115       84.66671       38.60712
O         73.35674       86.74743       38.61511
H         68.96381       87.71719       39.99627
H         71.39475       88.54259       38.45006
H         70.36917       86.26098       38.29064
H         70.68888       86.01524       40.04682
H         71.77884       84.02080       38.73179
H         73.48774       84.27651       38.35786
N         72.91335       89.15588       40.52171
C         73.65754       89.60715       41.69277
C         74.95201       88.85104       41.93505
O         75.62030       89.17658       42.90605
H         73.30246       89.37273       39.59311
H         73.05245       89.48124       42.61582
H         73.86476       90.69306       41.58284
N         75.34795       87.80408       41.15475
C         76.51114       86.96767       41.45068
C         77.51061       86.97309       40.30997
O         77.24991       87.55838       39.26783
C         76.03532       85.51366       41.71740
C         75.17357       85.41734       42.97571
O         75.29708       85.04250       40.61490
H         74.77731       87.54383       40.34447
H         77.04991       87.33845       42.34962
H         76.92218       84.86230       41.90058
H         75.68958       84.17669       40.33169
H         74.86829       84.36146       43.13833
H         75.75802       85.75252       43.85903
H         74.25993       86.04077       42.88348
N         78.68558       86.29251       40.45061
C         79.65203       86.10564       39.37901
C         79.65481       84.61919       39.09036
O         80.04386       83.84131       39.95203
C         81.04999       86.64538       39.79501
C         82.14598       86.41680       38.71867
C         80.96691       88.13095       40.19111
C         81.89902       87.11440       37.37769
H         78.88327       85.82685       41.35016
H         79.31587       86.65421       38.47343
H         81.37655       86.09037       40.70322
H         82.25288       85.32747       38.52836
H         83.11806       86.77743       39.12164
H         80.60883       88.75668       39.34806
H         80.26498       88.26821       41.04063
H         81.96280       88.49714       40.51965
H         81.83522       88.21489       37.49929
H         82.74436       86.89914       36.69038
H         80.97146       86.73712       36.90636
N         79.10350       84.15511       37.93770
C         78.83952       82.74308       37.68091
C         79.49709       82.23888       36.40630
O         79.34956       81.05560       36.13526
C         77.30809       82.49596       37.72976
C         76.54159       83.50369       36.92962
O         76.71674       83.61130       35.72636
O         75.78243       84.40328       37.58545
H         78.75733       84.84309       37.25172
H         79.26923       82.10768       38.48633
H         76.99446       82.62885       38.78901
H         77.04583       81.45872       37.43371
N         80.28066       83.02752       35.60396
C         81.05431       82.45857       34.49959
C         81.73016       83.56228       33.67112
O         82.38429       84.40804       34.26485
C         82.16041       81.53218       35.07506
C         82.86521       80.74366       33.99948
C         84.11225       81.15961       33.50638
C         82.27661       79.57442       33.48382
C         84.75403       80.42414       32.50483
C         82.92811       78.83514       32.49165
C         84.16417       79.26196       31.99981
H         80.36926       84.03321       35.80433
H         80.35900       81.86582       33.87286
H         81.76776       80.79888       35.80995
H         82.88597       82.15681       35.64092
H         84.57899       82.05934       33.88623
H         81.31897       79.23165       33.85673
H         85.70935       80.75541       32.11976
H         82.47489       77.93163       32.10362
H         84.66512       78.69173       31.22808
N         81.68901       83.59016       32.29737
C         82.45922       84.53024       31.48003
C         82.05466       85.99812       31.52463
O         82.66024       86.76673       30.78871
C         82.25056       84.01404       30.04862
C         82.09841       82.52911       30.27035
C         81.16428       82.51792       31.47227
H         83.53047       84.42027       31.76447
H         81.26873       84.37539       29.66055
H         83.04479       84.31393       29.33175
H         81.72714       81.95834       29.39352
H         83.08951       82.12027       30.57646
H         80.12654       82.77525       31.16692
H         81.20137       81.51065       31.92467
N         81.03070       86.47014       32.29484
C         80.55664       87.85475       32.19131
C         81.58521       88.91789       32.56184
O         81.28653       90.08628       32.35417
C         79.26958       88.06473       33.01361
C         79.49604       87.98107       34.52922
C         78.17850       88.03841       35.23076
O         77.44994       89.01472       35.15181
O         77.78010       86.94129       35.88173
H         80.51467       85.81048       32.89343
H         80.28340       88.01330       31.12412
H         78.53326       87.28929       32.70304
H         78.83163       89.05947       32.77706
H         80.16023       88.79299       34.89468
H         79.97360       87.00745       34.76921
N         82.79430       88.61312       33.11566
C         83.78245       89.61852       33.45487
H         84.71544       89.42040       32.88737
H         83.44506       90.64897       33.21340
H         84.00036       89.56960       34.54155
H         83.04130       87.63536       33.31910
Ca        75.75710       86.42131       36.65464
O         75.39864       89.31961       37.89824
H         76.04611       90.05540       37.76113
H         74.56596       89.63789       37.46964
O         75.71847       85.92835       33.59118
H         76.48737       85.47535       33.16228
H         75.77766       86.86677       33.28090

Ca 1.0



