%chk=apoCaM-CA-Ng.loop2.water4.frame700.chk
%nprocshared=20
%mem=10GB
%nosave
#b3lyp/svp scf=(tight,noincore,xqc) Test 
#IOP(5/87=12) Density=Current Pop=(MK,readradii) iop(6/33=2) iop(6/42=6)

apoCaM-CA-Ng.loop2.water4.frame700 

   -2  1 
C         78.29056      111.57231       -9.42450
C         79.16453      112.73977       -9.77744
O         78.64697      113.80325      -10.08869
H         77.21590      111.84261       -9.50687
H         78.49828      110.72812      -10.11539
H         78.49957      111.25084       -8.38276
N         80.51977      112.60268       -9.76417
C         81.42825      113.69028      -10.10900
C         81.31046      114.80322       -9.08650
O         81.56113      114.55904       -7.91389
C         82.88347      113.17314      -10.16210
C         83.88831      114.19957      -10.62756
O         83.54888      115.33047      -10.94062
O         85.18667      113.85539      -10.71256
H         80.91191      111.67911       -9.52145
H         81.16485      114.05362      -11.12793
H         82.93116      112.31788      -10.86983
H         83.18351      112.80770       -9.15549
N         80.93767      116.05867       -9.46328
C         80.80762      117.15234       -8.50536
C         79.72659      116.83030       -7.48820
O         78.82769      116.06904       -7.82100
C         80.43872      118.44768       -9.24735
H         80.74584      116.23766      -10.46168
H         81.78694      117.29033       -7.99990
H         81.22333      118.69427       -9.99369
H         79.47069      118.32520       -9.78131
H         80.34099      119.30733       -8.55576
N         79.66918      117.39181       -6.24767
C         80.64489      118.31916       -5.67212
C         81.91335      117.61390       -5.17055
O         82.03508      116.40471       -5.30488
C         79.96134      119.11083       -4.52888
C         79.55343      118.28403       -3.33626
O         79.06294      118.84397       -2.36913
O         79.73910      116.94792       -3.29750
H         78.83034      117.16530       -5.68996
H         80.92508      119.08197       -6.42445
H         79.06190      119.62312       -4.93531
H         80.64322      119.90847       -4.17038
N         82.87383      118.32762       -4.51019
C         84.04752      117.74291       -3.87448
C         85.12008      117.31773       -4.85329
O         84.91985      117.45101       -6.05204
H         82.73605      119.33867       -4.37234
H         83.74827      116.90168       -3.21505
H         84.50247      118.53510       -3.24116
N         86.33503      116.84716       -4.43197
C         86.69175      116.63110       -3.02545
C         86.17432      115.28176       -2.54476
O         85.67365      114.52071       -3.36158
C         88.22807      116.71790       -2.81915
C         89.00317      115.54444       -3.38688
N         89.73655      114.74978       -2.57050
O         88.97495      115.30903       -4.58489
H         87.04402      116.66793       -5.15757
H         86.26642      117.45655       -2.41758
H         88.42683      116.77303       -1.72703
H         88.60854      117.66438       -3.26199
H         89.78268      114.92735       -1.55631
H         90.26252      113.94969       -2.95218
N         86.30970      114.89361       -1.24178
C         86.00270      113.53950       -0.79299
C         84.86211      113.43737        0.19960
O         84.57676      112.32212        0.61284
H         86.70127      115.55687       -0.55479
H         86.92261      113.11780       -0.33002
H         85.74286      112.88426       -1.64947
N         84.17251      114.52278        0.65147
C         83.11201      114.41046        1.65359
C         81.85323      113.76159        1.07964
O         81.28349      114.29536        0.14089
C         82.77045      115.80509        2.22728
C         81.72617      115.71697        3.34788
O         83.94311      116.38133        2.74426
H         84.45166      115.46061        0.32757
H         83.50394      113.81200        2.50734
H         82.37029      116.43696        1.40239
H         83.81395      117.36541        2.72978
H         80.77432      115.28735        2.97387
H         82.10381      115.08091        4.17676
H         81.51227      116.73186        3.74217
N         81.34072      112.62676        1.63563
C         80.05911      112.03140        1.24083
C         78.91036      112.89771        1.75855
O         78.83379      113.09473        2.96430
C         79.92879      110.58758        1.83260
C         78.52971      109.97562        1.53206
C         81.04943      109.68571        1.27175
C         78.29754      108.60867        2.17979
H         81.87466      112.18466        2.39912
H         80.01367      111.93495        0.13277
H         80.04520      110.65099        2.93816
H         78.37630      109.89619        0.43560
H         77.73960      110.63868        1.94225
H         80.94249      109.57296        0.17149
H         82.05374      110.10426        1.48417
H         81.03069      108.68198        1.74019
H         77.25837      108.27613        1.97204
H         78.98138      107.83887        1.77128
H         78.43156      108.67838        3.28063
N         77.95123      113.39653        0.91887
C         76.78222      114.14401        1.38486
C         75.44948      113.46522        1.05951
O         74.43360      114.05452        1.40027
C         76.79229      115.58862        0.83738
C         77.95450      116.34767        1.40793
O         79.19714      116.15094        0.94315
O         77.77749      117.13947        2.31987
H         78.04485      113.23731       -0.09114
H         76.79163      114.23083        2.49464
H         75.86868      116.09130        1.20093
H         76.78173      115.63185       -0.27361
N         75.34491      112.22755        0.47696
C         74.04863      111.58314        0.24843
C         73.92363      111.13978       -1.21170
O         73.72702      109.95980       -1.45091
C         73.92401      110.38033        1.22255
C         72.57614      109.67361        1.28832
C         71.41681      110.12116        0.61514
C         72.48549      108.51358        2.07934
C         70.21032      109.42262        0.73888
C         71.27922      107.81551        2.19218
C         70.14188      108.27077        1.52430
H         76.19615      111.69867        0.24204
H         73.22179      112.28537        0.48022
H         74.14669      110.73397        2.25295
H         74.70721      109.63906        0.94651
H         71.42178      111.00889        0.00045
H         73.35625      108.14425        2.60703
H         69.32487      109.77600        0.22566
H         71.22610      106.92127        2.79998
H         69.20733      107.73176        1.61657
N         74.03385      112.02050       -2.25888
C         73.92525      111.61968       -3.66053
C         74.88744      110.52400       -4.10188
O         74.73267      110.03249       -5.21416
C         74.25118      112.90872       -4.42342
C         73.72331      113.97155       -3.48727
C         74.18045      113.44976       -2.12582
H         72.87478      111.28654       -3.81500
H         75.35755      113.04367       -4.45052
H         73.86677      112.94219       -5.46539
H         74.04156      115.01080       -3.71455
H         72.61104      113.91884       -3.52870
H         75.24840      113.67934       -1.91980
H         73.52257      113.88949       -1.34542
N         75.92011      110.10806       -3.31405
C         76.80483      109.01365       -3.66765
C         76.01957      107.72568       -3.52837
O         75.86824      107.00587       -4.50430
C         78.07237      108.95014       -2.76896
C         79.17078      109.99883       -3.07512
C         78.94290      111.42597       -2.65301
O         79.80826      112.25483       -2.87964
O         77.84853      111.80737       -1.98405
H         76.05632      110.55155       -2.40419
H         77.15833      109.12886       -4.71787
H         78.55907      107.97679       -3.00281
H         77.81798      108.93583       -1.68821
H         79.38441      109.97676       -4.16538
H         80.09163      109.67593       -2.54246
N         75.47586      107.38442       -2.32566
C         74.70002      106.17893       -2.14029
H         73.81246      106.19349       -2.80764
H         75.32301      105.28776       -2.36410
H         74.35016      106.11542       -1.08734
H         75.60769      108.00487       -1.51311
Ca        79.52984      115.99440       -1.27402
O         82.12882      117.34554       -1.18490
H         83.03091      117.44527       -0.79045
H         81.51695      117.73937       -0.51366
O         79.83987      114.17198       -5.16146
H         80.79039      113.97921       -5.35798
H         79.35901      113.35712       -5.45254
O         82.45682      113.72788       -3.03522
H         82.96054      113.84513       -3.87960
H         83.13243      113.84872       -2.32213
O         77.19876      115.09772       -3.50758
H         77.03966      115.00964       -4.48080
H         77.41356      114.17913       -3.20845

Ca 1.0



