%chk=apoCaM-CA-Ng.loop2.water4.frame1435.chk
%nprocshared=20
%mem=10GB
%nosave
#b3lyp/svp scf=(tight,noincore,xqc) Test 
#IOP(5/87=12) Density=Current Pop=(MK,readradii) iop(6/33=2) iop(6/42=6)

apoCaM-CA-Ng.loop2.water4.frame1435 

   -2  1 
C         85.70312       97.91976       -0.40956
C         84.95472       96.63206       -0.60928
O         85.59685       95.61427       -0.82313
H         86.79748       97.75262       -0.49365
H         85.40133       98.66169       -1.17750
H         85.48853       98.31691        0.60561
N         83.59575       96.55400       -0.54061
C         82.70872       97.69289       -0.30604
C         81.70131       97.90057       -1.44774
O         80.93170       98.84863       -1.36965
C         82.03827       97.57294        1.08013
C         81.14052       96.39269        1.25626
O         81.00164       95.48186        0.28654
O         80.46381       96.29686        2.26770
H         83.17762       95.61876       -0.65405
H         83.28891       98.63455       -0.25555
H         81.42296       98.48505        1.24166
H         82.81637       97.53875        1.87185
N         81.68848       97.11108       -2.56638
C         80.86324       97.39336       -3.74374
C         79.36070       97.20230       -3.55792
O         78.64700       97.46650       -4.51693
C         81.32800       96.52385       -4.92219
H         82.36861       96.34203       -2.64028
H         81.04024       98.45158       -4.04029
H         80.76707       96.78255       -5.84680
H         82.40559       96.70527       -5.12228
H         81.17612       95.44647       -4.69876
N         78.78559       96.78216       -2.39327
C         77.33522       96.64824       -2.26680
C         76.85914       96.62861       -0.80505
O         76.88403       95.41624       -0.11010
C         76.74859       95.49370       -3.12462
C         77.42898       94.14922       -3.01342
O         78.52994       93.97025       -2.26752
O         77.01265       93.21335       -3.67558
H         79.37337       96.60617       -1.56870
H         76.87231       97.58989       -2.63610
H         76.81384       95.77628       -4.19452
H         75.66889       95.38624       -2.87798
N         77.29652       97.80356       -0.02785
C         76.96489       97.77276        1.40653
C         75.50833       97.50308        1.75661
O         75.23602       97.37189        2.94124
H         76.87602       98.66054       -0.45697
H         77.26794       98.74096        1.86425
H         77.58414       96.98366        1.88254
N         74.52909       97.37128        0.81367
C         73.16911       96.95871        1.11247
C         72.93582       95.61977        0.41367
O         72.06810       95.51572       -0.44241
C         72.21927       98.08801        0.65703
C         70.77548       97.81306        0.98745
N         69.84142       97.76250        0.00925
O         70.44293       97.65112        2.15207
H         74.73150       97.53739       -0.17915
H         73.02745       96.80398        2.20474
H         72.34430       98.25309       -0.43624
H         72.51032       99.02922        1.17324
H         70.10046       97.90395       -0.97817
H         68.85280       97.58504        0.23944
N         73.72157       94.54545        0.73150
C         73.64914       93.25765        0.03594
C         75.02350       92.61267       -0.10424
O         75.97745       93.14325        0.43720
H         74.43066       94.67262        1.46973
H         73.25460       93.42864       -0.98456
H         72.95878       92.57669        0.57217
N         75.26861       91.48489       -0.83037
C         74.28541       90.64544       -1.50474
C         74.70844       89.17732       -1.36373
O         73.91128       88.37264       -0.90498
C         74.15259       91.02809       -3.00427
C         73.03252       90.22218       -3.67635
O         73.81613       92.38353       -3.13897
H         76.26010       91.22752       -0.92334
H         73.28293       90.79915       -1.04763
H         75.10234       90.82266       -3.55032
H         74.64993       92.90577       -3.03275
H         72.93584       90.52044       -4.74177
H         73.23373       89.13212       -3.63571
H         72.06169       90.42597       -3.17166
N         75.96527       88.77393       -1.73837
C         76.45846       87.39620       -1.71652
C         77.54118       87.26927       -0.63478
O         78.45247       88.08499       -0.65519
C         77.08959       87.04900       -3.10666
C         76.13321       87.38823       -4.27962
C         77.51680       85.56609       -3.14937
C         76.77660       87.19776       -5.65721
H         76.63130       89.48223       -2.07999
H         75.62048       86.69586       -1.54007
H         77.99855       87.67983       -3.23619
H         75.85459       88.46123       -4.22057
H         75.20357       86.78412       -4.21191
H         78.21343       85.32646       -2.32100
H         76.62713       84.90539       -3.07021
H         78.05850       85.32376       -4.08422
H         77.01093       86.13333       -5.85656
H         76.07349       87.53868       -6.44530
H         77.70814       87.79983       -5.73359
N         77.59714       86.26868        0.30203
C         76.67386       85.13766        0.37108
C         77.29527       83.90462        1.03736
O         78.31877       83.99496        1.69857
C         75.34840       85.53170        1.06147
C         75.54620       85.95272        2.49404
O         74.94620       85.26811        3.48629
O         76.23228       86.92601        2.76427
H         78.42338       86.26497        0.91965
H         76.47809       84.80814       -0.66771
H         74.65121       84.66696        1.03011
H         74.86229       86.36967        0.52729
N         76.71616       82.68738        0.82470
C         77.19490       81.41424        1.35877
C         77.67502       80.53332        0.21038
O         76.96192       80.44690       -0.77821
C         76.03981       80.74709        2.14500
C         76.35926       79.34076        2.61329
C         76.34099       78.26745        1.69997
C         76.66527       79.08002        3.95967
C         76.63651       76.96965        2.11983
C         76.96743       77.77710        4.37486
C         76.95430       76.72422        3.45555
H         75.88726       82.65232        0.21196
H         78.01363       81.56700        2.08127
H         75.10685       80.70422        1.54194
H         75.83363       81.40353        3.01919
H         76.09067       78.42891        0.66027
H         76.68495       79.88361        4.68435
H         76.61965       76.15516        1.40649
H         77.21337       77.58196        5.41015
H         77.18683       75.71726        3.77706
N         78.82404       79.77608        0.28008
C         79.70621       79.63659        1.43462
C         80.43997       80.90690        1.77894
O         80.44103       81.30317        2.93387
C         80.69829       78.53848        1.02180
C         79.85912       77.70794        0.07224
C         79.18348       78.80726       -0.73758
H         79.11611       79.25793        2.29803
H         81.52530       78.96829        0.41220
H         81.14742       77.98593        1.87590
H         80.43250       76.97288       -0.53106
H         79.08372       77.16805        0.66048
H         79.92893       79.27305       -1.42160
H         78.32446       78.41493       -1.32115
N         81.06389       81.61342        0.79665
C         81.79105       82.84753        1.04867
C         83.07025       82.51745        1.80605
O         83.88484       81.78284        1.26479
C         82.13621       83.54631       -0.28654
C         80.87261       83.97898       -1.05624
C         81.23251       84.60899       -2.37037
O         81.82222       83.96104       -3.22090
O         80.89064       85.88608       -2.62554
H         80.99220       81.26536       -0.17084
H         81.13780       83.54219        1.61622
H         82.74053       82.85583       -0.91666
H         82.74388       84.45456       -0.07809
H         80.30068       84.70651       -0.44004
H         80.21280       83.11046       -1.26453
N         83.34731       82.98776        3.05542
C         82.46567       83.84608        3.81513
H         81.49782       83.33843        4.00062
H         82.92459       84.07468        4.80050
H         82.29659       84.79950        3.27344
H         84.23882       82.71163        3.49622
Ca        78.96551       94.70272        0.24031
O         78.57119       91.08278        0.33688
H         78.68076       90.88280       -0.62691
H         78.91611       90.27832        0.79908
O         77.39931       93.89328        2.94353
H         77.74616       94.10061        3.84704
H         76.60125       94.47092        2.84560
O         81.02223       92.39690       -0.98934
H         81.96106       92.69814       -1.07643
H         80.76470       92.11518       -1.90314
O         80.31172       92.35997        2.60144
H         79.90535       92.29712        3.50222
H         80.98863       91.63747        2.58405

Ca 1.0



