%chk=apoCaM-CA-Ng.loop2.water3.frame1200.chk
%nprocshared=20
%mem=10GB
%nosave
#b3lyp/svp scf=(tight,noincore,xqc) Test 
#IOP(5/87=12) Density=Current Pop=(MK,readradii) iop(6/33=2) iop(6/42=6)

apoCaM-CA-Ng.loop2.water3.frame1200 

   -2  1 
C         20.69035       15.85018       99.73535
C         19.92156       14.74279       99.06503
O         18.72240       14.89879       98.88714
H         21.48258       16.22637       99.05403
H         20.01782       16.69923       99.98445
H         21.14653       15.48201      100.67777
N         20.50792       13.58504       98.64026
C         21.92685       13.26670       98.78707
C         22.11513       11.98820       99.59822
O         21.13653       11.40106      100.03924
C         22.60994       13.20193       97.40417
C         22.16100       12.05296       96.55077
O         22.97119       11.20946       96.20293
O         20.88336       11.95964       96.13872
H         19.90235       12.88890       98.18014
H         22.44946       14.07369       99.33869
H         23.70819       13.12010       97.55109
H         22.42985       14.15400       96.85968
N         23.37363       11.52508       99.85814
C         23.70807       10.40031      100.72974
C         23.24137        9.01610      100.27004
O         23.56913        8.07255      100.97728
C         23.22193       10.68894      102.16060
H         24.17246       12.05029       99.47347
H         24.81910       10.34570      100.77705
H         23.58194        9.90592      102.86111
H         23.62187       11.66649      102.50600
H         22.11458       10.71821      102.21849
N         22.49383        8.78557       99.14487
C         22.01933        7.44193       98.77785
C         22.46236        7.01782       97.38008
O         23.09866        7.79638       96.68311
C         20.48801        7.35326       98.96728
C         19.65503        8.25652       98.09557
O         20.16268        8.99998       97.27310
O         18.31558        8.23775       98.22834
H         22.21847        9.57799       98.55164
H         22.45068        6.68670       99.46997
H         20.26203        7.59662      100.02836
H         20.15673        6.30855       98.79018
N         22.19215        5.75172       96.92989
C         22.65999        5.23316       95.64925
C         22.03682        5.91473       94.45055
O         21.13058        6.71796       94.60701
H         21.69434        5.09718       97.55089
H         22.44605        4.14549       95.57505
H         23.76341        5.36699       95.60996
N         22.55070        5.67433       93.20841
C         22.20714        6.46068       92.02562
C         21.96479        5.61248       90.78820
O         22.68157        4.64949       90.55265
C         23.40684        7.37134       91.71285
C         23.62508        8.39330       92.83287
N         24.95319        8.98299       92.75492
O         22.66255        9.40200       92.72232
H         23.34006        5.01364       93.13127
H         21.32478        7.11479       92.20283
H         23.25855        7.92294       90.75663
H         24.30721        6.72750       91.59906
H         25.65376        8.21984       92.89896
H         25.05567        9.63457       93.56566
N         21.10060        6.07791       89.84196
C         20.99766        5.55614       88.48810
C         20.44513        4.15154       88.37519
O         20.20539        3.51633       89.39146
H         20.56091        6.93322       90.04703
H         21.99741        5.60005       88.00256
H         20.31192        6.22857       87.93193
N         20.16828        3.58773       87.15768
C         20.34235        4.27359       85.87344
C         19.00504        4.65321       85.25998
O         19.00152        5.52924       84.40472
C         21.18709        3.43948       84.88520
C         22.60051        3.19407       85.41996
O         20.55047        2.21153       84.63727
H         19.76775        2.63694       87.14901
H         20.87047        5.23607       86.01638
H         21.27154        4.01861       83.93419
H         20.90563        1.86958       83.77517
H         23.11467        4.16262       85.59757
H         22.56930        2.61862       86.36875
H         23.18909        2.61795       84.67439
N         17.83516        4.04496       85.62011
C         16.53565        4.45252       85.10274
C         15.58583        4.60645       86.29489
O         15.27776        3.58463       86.89385
C         15.99244        3.39016       84.09356
C         17.01647        3.14415       82.95064
C         14.63745        3.84938       83.51992
C         16.60571        2.03879       81.97464
H         17.85158        3.24714       86.26974
H         16.63494        5.38796       84.52311
H         15.84500        2.42854       84.63340
H         17.98271        2.82196       83.39197
H         17.19109        4.08456       82.38312
H         14.77032        4.78816       82.94327
H         14.19349        3.08228       82.85568
H         13.90065        4.02473       84.32954
H         16.44252        1.08548       82.52069
H         15.68863        2.30643       81.41314
H         17.41678        1.88547       81.23162
N         15.04080        5.78328       86.72692
C         15.35567        7.12321       86.24681
C         14.20346        7.71255       85.44469
O         14.34776        8.83206       84.97082
C         15.72446        8.01378       87.44901
C         16.89243        7.46181       88.21771
O         16.74750        7.11973       89.51268
O         17.97639        7.32519       87.67518
H         14.34879        5.72687       87.49217
H         16.23002        7.12045       85.57221
H         14.85537        8.08098       88.13109
H         15.98245        9.03818       87.10281
N         13.07829        6.98769       85.16285
C         12.07530        7.40786       84.19328
C         10.66932        7.29360       84.76983
O         10.34063        6.21899       85.25657
C         12.24414        6.49848       82.95657
C         11.40752        6.91005       81.76726
C         10.00946        6.75976       81.76662
C         12.03617        7.44170       80.62656
C          9.25780        7.14876       80.65465
C         11.28073        7.82966       79.51786
C          9.89210        7.68582       79.53257
H         12.97855        6.03383       85.53854
H         12.28606        8.43218       83.83603
H         12.04893        5.43262       83.20518
H         13.31481        6.57837       82.66793
H          9.49535        6.33689       82.61778
H         13.11205        7.56368       80.59532
H          8.18212        7.03186       80.66315
H         11.77382        8.24225       78.64747
H          9.30833        7.98683       78.67303
N          9.73809        8.29823       84.67106
C          9.94671        9.57596       84.00675
C         10.85764       10.47846       84.80420
O         11.88311       10.90390       84.29103
C          8.53131       10.17114       83.87070
C          7.66770        8.92086       83.84915
C          8.33132        8.10202       84.95023
H         10.33399        9.37738       82.98244
H          8.23512       10.71861       84.79132
H          8.40546       10.86570       83.01275
H          6.58320        9.10584       84.00016
H          7.81571        8.40054       82.87765
H          8.09646        8.55623       85.93916
H          8.00504        7.03987       84.93975
N         10.52106       10.81707       86.08155
C         11.32020       11.67970       86.93110
C         10.53703       12.95914       87.17900
O          9.47605       12.88573       87.78374
C         11.61233       10.96486       88.26548
C         12.44482        9.69345       88.06864
C         12.63324        8.97630       89.37547
O         13.24916        9.58930       90.40436
O         12.23632        7.82924       89.50764
H          9.63875       10.45869       86.47745
H         12.28886       11.90859       86.44567
H         10.64708       10.69267       88.75016
H         12.16174       11.65484       88.94322
H         13.43570        9.96847       87.64962
H         11.93670        9.01025       87.35301
N         10.95129       14.17892       86.73182
C         12.15542       14.38794       85.95690
H         13.04877       14.08727       86.54341
H         12.10410       13.80341       85.01270
H         12.25340       15.46202       85.69367
H         10.36354       15.00304       86.93186
Ca        21.47237        9.41473       94.65593
O         19.43496        9.14711       92.46994
H         18.79990        8.39903       92.33997
H         19.50664        9.57430       91.57993
O         21.03898       12.06354       93.04002
H         21.10533       12.14626       92.05581
H         21.95942       12.22923       93.36577
O         18.42955       10.45949       95.13121
H         17.82450        9.83555       95.60529
H         17.90070       10.78162       94.35881

Ca 1.0



