%chk=apoCaM-CA-Ng.loop4.water2.frame466.chk
%nprocshared=20
%mem=10GB
%nosave
#b3lyp/svp scf=(tight,noincore,xqc) Test 
#IOP(5/87=12) Density=Current Pop=(MK,readradii) iop(6/33=2) iop(6/42=6)

apoCaM-CA-Ng.loop4.water2.frame466 

   -3  1 
C         45.98791       39.76857      103.71180
C         46.17144       39.07029      105.02542
O         46.53339       37.91022      105.00339
H         45.67977       40.82466      103.84872
H         46.95002       39.74861      103.15444
H         45.21820       39.23903      103.11211
N         45.97079       39.71888      106.20933
C         46.21320       39.13397      107.52710
C         47.67678       38.77465      107.71545
O         47.99566       37.62646      107.94801
C         45.15754       38.07261      107.96616
C         44.68292       36.92351      107.08925
O         45.45220       35.89697      106.66615
O         43.48957       36.86436      106.83540
H         45.68275       40.70842      106.17995
H         46.06421       39.93656      108.28597
H         44.23696       38.66703      108.16997
H         45.47321       37.65706      108.94737
N         48.60530       39.78007      107.68505
C         50.06120       39.69047      107.85685
C         50.48769       39.22938      109.25504
O         51.01462       40.05625      109.98743
C         50.74649       38.91989      106.69658
C         52.29730       38.88673      106.82254
C         50.33237       39.51841      105.33790
C         52.98771       40.25583      106.85056
H         48.24324       40.73165      107.51434
H         50.42091       40.74060      107.77199
H         50.39660       37.87002      106.71301
H         52.71173       38.30900      105.96829
H         52.58116       38.35112      107.75056
H         49.23553       39.43636      105.18912
H         50.60674       40.59137      105.26794
H         50.82631       38.97341      104.50949
H         52.67113       40.84657      107.73412
H         54.08563       40.10882      106.92525
H         52.78352       40.83294      105.92656
N         50.32060       37.95094      109.70294
C         50.68027       37.53631      111.05397
C         52.19091       37.31065      111.22445
O         52.73412       37.97936      112.09312
C         49.78170       36.38336      111.54647
C         48.33956       36.81190      111.65144
O         47.99329       37.83454      112.45746
O         47.47339       36.22362      111.02538
H         49.90141       37.24533      109.09106
H         50.41590       38.36321      111.75516
H         50.11040       36.07477      112.56343
H         49.82929       35.52210      110.86355
N         52.99298       36.47723      110.48195
C         52.61479       35.65283      109.34484
C         51.88356       34.37997      109.72971
O         51.69435       34.14908      110.91502
H         54.00340       36.49970      110.69431
H         53.54128       35.32943      108.82233
H         52.05004       36.28411      108.64514
N         51.45557       33.45629      108.81079
C         51.74661       33.48196      107.37374
C         51.27604       34.75490      106.69355
O         50.37560       35.39791      107.21087
C         51.16046       32.22581      106.67639
C         49.65890       32.15196      106.75791
O         48.96648       32.99748      106.21455
O         49.07022       31.13082      107.40798
H         50.94375       32.63935      109.17933
H         52.85463       33.44666      107.29314
H         51.59542       31.32711      107.16407
H         51.43506       32.18179      105.60435
N         51.88858       35.25518      105.58061
C         52.93658       34.58643      104.82896
C         54.28862       35.17632      105.10041
O         54.42490       36.06140      105.93399
H         51.61144       36.18914      105.24552
H         52.69044       34.66079      103.74677
H         53.02179       33.51468      105.06497
N         55.35087       34.70932      104.39187
C         56.70258       35.23173      104.52163
C         57.00818       36.20112      103.38725
O         58.06580       36.81482      103.42146
C         57.72485       34.08401      104.75304
C         57.70135       32.91232      103.75107
C         58.11525       33.29304      102.36110
N         59.38133       33.69004      102.10056
O         57.30808       33.20486      101.45148
H         55.16330       34.01261      103.65545
H         56.77071       35.87525      105.42713
H         57.47929       33.63609      105.74130
H         58.75107       34.50356      104.83300
H         56.68931       32.45761      103.73831
H         58.39215       32.11589      104.10352
H         60.08413       33.73603      102.85240
H         59.66731       33.92334      101.13895
N         56.07269       36.48970      102.42844
C         56.17117       37.61528      101.50561
C         56.21167       37.18702      100.04431
O         56.29055       38.07038       99.20248
C         55.00550       38.62196      101.77097
C         55.09795       39.21576      103.18665
C         53.60774       38.00906      101.55924
H         55.19967       35.94996      102.39091
H         57.12056       38.17063      101.67525
H         55.11447       39.46835      101.05709
H         54.30049       39.97513      103.33851
H         54.98293       38.42840      103.96200
H         56.07876       39.71761      103.32882
H         52.82878       38.79060      101.68855
H         53.51037       37.59348      100.53505
H         53.39436       37.20740      102.29631
N         56.21054       35.87504       99.66007
C         56.38924       35.44426       98.27269
C         55.20754       34.64913       97.73684
O         55.26889       34.29894       96.56493
C         57.65254       34.54776       98.17722
C         59.00309       35.19852       98.40199
N         59.18032       36.53775       98.50074
O         59.98290       34.47077       98.45670
H         56.13168       35.14061      100.37478
H         56.49608       36.31230       97.58827
H         57.71390       34.07705       97.17242
H         57.53189       33.72764       98.91678
H         58.40672       37.20151       98.40979
H         60.12611       36.92550       98.63233
N         54.11235       34.31078       98.48061
C         53.03996       33.48003       97.91956
C         51.82295       33.36107       98.81503
O         51.92221       33.57752      100.01275
C         53.56192       32.07134       97.51684
C         54.58266       31.50689       98.49339
C         55.90291       31.29763       98.04914
C         54.26473       31.21052       99.83138
C         56.88299       30.81641       98.91735
C         55.25223       30.72678      100.70195
C         56.56253       30.53086      100.24894
O         57.50562       30.07748      101.10013
H         54.04130       34.63795       99.45518
H         52.65215       34.00088       97.01544
H         54.05804       32.17637       96.53061
H         52.72364       31.36095       97.34945
H         56.18343       31.51970       97.02716
H         53.26288       31.35720      100.20809
H         57.89304       30.67404       98.55308
H         55.00263       30.51005      101.73313
H         58.42544       29.94751      100.82579
N         50.62555       33.00721       98.24167
C         49.31865       32.90034       98.89349
C         48.68408       34.25630       99.19356
O         47.56027       34.47560       98.75995
C         49.32455       31.95863      100.11114
C         49.79149       30.54892       99.71244
C         49.69885       29.59438      100.86522
O         48.61822       29.35582      101.38125
O         50.80510       28.97630      101.31981
H         50.63385       32.78385       97.23402
H         48.62421       32.42431       98.16104
H         48.28071       31.89107      100.49335
H         49.95862       32.35884      100.92883
H         50.84251       30.59301       99.35490
H         49.15669       30.15945       98.88608
N         49.32299       35.21550       99.91811
C         48.72429       36.49566      100.28098
C         48.38678       37.36350       99.06856
O         47.73894       38.38350       99.26102
C         49.66916       37.30088      101.21863
C         50.21698       36.54164      102.45071
C         49.16570       36.06078      103.40225
O         48.31142       35.26686      103.04344
O         49.20962       36.45449      104.68616
H         50.25884       35.02116      100.25157
H         47.77836       36.27679      100.82127
H         49.14461       38.21903      101.56492
H         50.55541       37.61866      100.62559
H         50.90124       37.22452      102.99278
H         50.83399       35.67311      102.15474
N         48.79935       37.04699       97.80372
C         48.48500       37.84616       96.63550
H         47.85903       38.73036       96.87725
H         49.42736       38.20001       96.16727
H         47.93491       37.22050       95.90131
H         49.37727       36.21232       97.63764
Ca        47.61631       35.78268      106.10494
O         46.11159       33.58922      104.64093
H         46.00141       33.71175      103.66474
H         46.30532       32.62482      104.75190
O         47.45803       34.02867      108.72601
H         47.86061       34.92909      108.80587
H         48.03481       33.45102      109.28590

Ca 1.0



