%chk=apoCaM-CA-Ng.loop3.water6.frame381.chk
%nprocshared=20
%mem=10GB
%nosave
#b3lyp/svp scf=(tight,noincore,xqc) Test 
#IOP(5/87=12) Density=Current Pop=(MK,readradii) iop(6/33=2) iop(6/42=6)

apoCaM-CA-Ng.loop3.water6.frame381 

   0  1 
C         42.59558      114.81817        0.49709
C         43.78944      114.42654       -0.31888
O         44.82633      114.14312        0.25822
H         41.75645      114.12068        0.30016
H         42.83778      114.79336        1.58229
H         42.29054      115.85169        0.22893
N         43.71524      114.40500       -1.68231
C         44.84260      114.10186       -2.56348
C         45.94765      115.14723       -2.44235
O         47.08502      114.85293       -2.78644
C         45.36789      112.65825       -2.36048
C         44.33313      111.62794       -2.72078
O         44.55084      110.83589       -3.62448
O         43.16725      111.56422       -2.05071
H         42.81475      114.64126       -2.12624
H         44.49684      114.16500       -3.61923
H         45.70252      112.49323       -1.31642
H         46.24721      112.49779       -3.02247
N         45.67298      116.42383       -2.03448
C         46.70195      117.46224       -1.94847
C         47.73790      117.15632       -0.86923
O         48.74333      117.85002       -0.80227
C         46.06894      118.84317       -1.67158
C         45.11352      119.27450       -2.79753
C         44.52121      120.65999       -2.52434
C         43.59883      121.09000       -3.67296
N         43.05728      122.42722       -3.43768
H         44.70068      116.66894       -1.80058
H         47.22387      117.51067       -2.93058
H         46.87823      119.60299       -1.59703
H         45.52392      118.81442       -0.70153
H         44.27833      118.55049       -2.90174
H         45.67751      119.30119       -3.75545
H         45.34730      121.39710       -2.42402
H         43.94299      120.63752       -1.57399
H         42.76028      120.36440       -3.77155
H         44.17324      121.09314       -4.62611
H         43.83680      123.12035       -3.35969
H         42.44740      122.69497       -4.24366
H         42.48676      122.43588       -2.56129
N         47.55071      116.13987        0.01778
C         48.50226      115.75664        1.05262
C         49.80097      115.26190        0.43219
O         49.83745      114.95699       -0.75288
C         47.84284      114.63146        1.88545
C         48.64984      114.05344        3.00658
O         48.98037      114.78420        4.08266
O         48.94857      112.87255        2.98297
H         46.67200      115.61825       -0.02576
H         48.70376      116.64523        1.69075
H         47.59337      113.81207        1.17811
H         46.88772      115.00353        2.31566
N         50.92334      115.17214        1.19506
C         52.18510      114.65283        0.70139
C         52.07934      113.17051        0.44187
O         52.37239      112.72070       -0.65662
H         50.88846      115.49666        2.17263
H         52.95794      114.79141        1.48826
H         52.51254      115.21483       -0.20114
N         51.67126      112.34818        1.44946
C         51.59328      110.89070        1.34503
C         50.51792      110.40789        0.36656
O         50.40495      109.20385        0.18100
C         51.27432      110.25391        2.72628
C         52.26848      110.58592        3.81982
N         52.99914      109.61195        4.40906
O         52.39577      111.73763        4.20444
H         51.44173      112.79833        2.34515
H         52.58607      110.51460        1.01223
H         51.24983      109.15069        2.59834
H         50.26429      110.57015        3.06370
H         52.91043      108.62870        4.11640
H         53.65848      109.84539        5.16656
N         49.66197      111.26411       -0.25842
C         48.53850      110.82475       -1.06954
C         47.50160      110.13268       -0.20859
O         47.01576      109.06725       -0.55848
H         49.75132      112.27852       -0.12156
H         48.86978      110.20254       -1.92876
H         48.05179      111.73503       -1.47936
N         47.13638      110.72151        0.95990
C         46.11250      110.26736        1.88895
C         46.78043      109.80463        3.17060
O         47.55996      110.55143        3.74343
C         45.17453      111.46698        2.14306
C         44.20993      111.29629        3.29064
C         43.22735      110.29460        3.28535
C         44.28934      112.17530        4.38638
C         42.33617      110.18050        4.36038
C         43.40193      112.05947        5.45505
C         42.41880      111.06251        5.44553
O         41.54935      110.94735        6.46940
H         47.64063      111.57661        1.22574
H         45.52101      109.42311        1.47002
H         44.61207      111.68902        1.21128
H         45.80848      112.35423        2.36263
H         43.14719      109.60948        2.45123
H         45.03835      112.95768        4.41486
H         41.57708      109.40913        4.34899
H         43.47899      112.74917        6.28659
H         41.57048      111.54706        7.22951
N         46.50886      108.57020        3.68307
C         47.17758      108.03383        4.86381
C         48.49760      107.42800        4.43051
O         49.52841      107.80443        4.96880
C         46.27585      107.01435        5.62506
C         44.96670      107.72111        6.07828
C         47.03728      106.44185        6.84243
C         43.99958      106.82941        6.86054
H         45.82792      107.96806        3.19363
H         47.37679      108.85414        5.59068
H         46.01973      106.16846        4.94844
H         44.42376      108.08774        5.18173
H         45.21373      108.60044        6.71318
H         46.44076      105.66743        7.36418
H         47.97537      105.94180        6.53107
H         47.29529      107.24988        7.55965
H         43.71962      105.93727        6.26305
H         44.43829      106.50864        7.82758
H         43.08047      107.40677        7.09658
N         48.54484      106.51198        3.42245
C         49.80572      105.95956        2.94317
C         50.40396      104.94526        3.90550
O         51.59739      104.69807        3.80397
C         49.62908      105.32099        1.55601
O         48.71543      104.25822        1.61968
H         47.66886      106.26807        2.93530
H         50.52099      106.80180        2.80932
H         50.60697      104.94743        1.17976
H         49.25776      106.10984        0.85999
H         48.35915      104.13745        0.70109
N         49.62912      104.25422        4.79974
C         50.11923      103.16404        5.64415
C         51.14256      103.59648        6.69310
O         51.71918      102.72316        7.32532
C         50.66492      102.02175        4.76496
H         48.61859      104.45103        4.83863
H         49.25760      102.73162        6.20011
H         50.92803      101.14326        5.39152
H         49.88736      101.70096        4.03878
H         51.57349      102.31738        4.20378
N         51.38736      104.91096        6.97476
C         52.40155      105.35396        7.92871
C         51.76803      106.03280        9.12756
O         50.88241      106.85766        8.95797
C         53.36628      106.31076        7.23406
H         50.83740      105.64057        6.49981
H         53.01416      104.49940        8.29181
H         52.83083      107.20744        6.85664
H         54.15413      106.63303        7.94942
H         53.85642      105.79343        6.38219
N         52.21605      105.73400       10.38430
C         51.67429      106.27681       11.62620
C         50.25255      105.78795       11.81162
O         49.33927      106.58493       11.98576
C         51.79396      107.82009       11.71372
C         53.24000      108.31525       11.58476
C         53.29772      109.81123       11.72542
O         53.71953      110.50003       10.81018
O         52.88855      110.40003       12.86625
H         52.99454      105.06438       10.48019
H         52.26571      105.85393       12.47044
H         51.39859      108.14133       12.70369
H         51.17494      108.30472       10.92988
H         53.64658      108.01924       10.59315
H         53.87064      107.85968       12.37801
N         49.99889      104.45183       11.78003
C         48.66806      103.91497       11.94808
H         47.99420      104.32161       11.16441
H         48.69430      102.80842       11.85644
H         48.27772      104.18201       12.95277
H         50.77609      103.79169       11.62162
Ca        49.87937      113.56912        5.76307
O         49.38526      112.37329        8.58608
H         49.75875      111.49891        8.86216
H         48.54986      112.46280        9.10915
O         49.41724      115.79303        7.41921
H         48.47847      116.06154        7.58082
H         49.94973      116.32115        8.06441
O         49.99071      110.55323        6.16064
H         49.98498      109.72135        6.69649
H         49.05774      110.65348        5.84756
O         52.44901      112.85683        7.25741
H         52.12905      112.03828        7.71297
H         53.18144      112.54287        6.67026
O         46.81375      113.37281        6.76202
H         46.77118      114.22613        6.26160
H         46.70705      113.63683        7.71034
O         52.12912      114.98683        4.75557
H         52.01955      115.91970        4.44390
H         52.85830      114.61637        4.19874

Ca 1.0



