%chk=apoCaM-CA-Ng.loop4.water2.frame24.chk
%nprocshared=20
%mem=10GB
%nosave
#b3lyp/svp scf=(tight,noincore,xqc) Test 
#IOP(5/87=12) Density=Current Pop=(MK,readradii) iop(6/33=2) iop(6/42=6)

apoCaM-CA-Ng.loop4.water2.frame24 

   -3  1 
C         79.95176       56.08938       37.65016
C         80.16487       57.31617       36.81263
O         79.22773       58.07730       36.67073
H         79.14204       55.47430       37.20184
H         80.87090       55.47213       37.71514
H         79.64624       56.38826       38.67539
N         81.37172       57.57376       36.23014
C         81.67233       58.72794       35.38106
C         81.56651       60.03823       36.15287
O         80.74697       60.88063       35.83527
C         80.96802       58.65055       33.99309
C         79.46799       58.76357       33.94557
O         78.86718       59.94452       34.18154
O         78.79504       57.80709       33.59416
H         82.14062       56.90740       36.39827
H         82.74791       58.65487       35.10173
H         81.25680       57.66932       33.55496
H         81.38243       59.43869       33.32771
N         82.46003       60.27460       37.15869
C         82.58791       61.48616       37.97354
C         82.86964       62.72065       37.11694
O         84.02516       63.11338       37.03357
C         81.41999       61.66928       38.98720
C         81.60307       62.91814       39.89771
C         81.22162       60.40270       39.83881
C         82.86451       62.92081       40.76978
H         83.15545       59.53505       37.34571
H         83.50180       61.31773       38.58598
H         80.47797       61.81110       38.42430
H         80.72067       63.00058       40.56626
H         81.62794       63.83405       39.27282
H         82.13517       60.15679       40.41814
H         80.37373       60.54325       40.54363
H         80.97870       59.53407       39.19139
H         83.78244       62.91965       40.14732
H         82.88097       63.84515       41.38504
H         82.88222       62.05341       41.45972
N         81.86917       63.41437       36.49663
C         82.10126       64.57021       35.64030
C         82.00777       65.90264       36.40209
O         82.99978       66.61635       36.33364
C         81.24811       64.48289       34.36013
C         81.64606       63.30827       33.50482
O         82.89972       63.21940       33.02029
O         80.83248       62.44360       33.22401
H         80.89495       63.12155       36.63323
H         83.15196       64.54238       35.26671
H         81.39747       65.40258       33.75343
H         80.17979       64.38269       34.61462
N         80.97273       66.35775       37.18098
C         79.72463       65.69279       37.51349
C         78.70172       65.72784       36.39764
O         78.99702       66.26909       35.34220
H         81.12786       67.25706       37.66486
H         79.26138       66.24474       38.35965
H         79.94673       64.68267       37.88219
N         77.43476       65.22867       36.54286
C         76.87417       64.68374       37.78531
C         77.62964       63.45853       38.29493
O         78.39531       62.89151       37.53110
C         75.36314       64.37449       37.58375
C         75.10600       63.34359       36.51625
O         74.46663       63.64021       35.51980
O         75.55237       62.08301       36.66476
H         76.80997       65.31381       35.72548
H         76.97406       65.48666       38.54680
H         74.85588       65.32357       37.30270
H         74.87862       64.00982       38.50808
N         77.51517       62.98316       39.57498
C         76.64907       63.53420       40.60703
C         77.42084       64.08796       41.77321
O         78.64259       64.05083       41.78798
H         78.09443       62.17388       39.84607
H         75.95749       62.74119       40.96206
H         76.04559       64.37810       40.23988
N         76.72973       64.69204       42.77906
C         77.38273       65.38088       43.88748
C         78.03275       64.41079       44.86864
O         78.74306       64.87619       45.75137
C         76.37817       66.30864       44.61522
C         75.77013       67.35669       43.65484
C         74.79682       68.27403       44.34699
N         75.20960       69.11779       45.32008
O         73.62257       68.27263       44.00719
H         75.70222       64.72100       42.70188
H         78.17657       66.03498       43.46139
H         76.90731       66.83865       45.43687
H         75.56207       65.69751       45.05951
H         75.22772       66.84524       42.83302
H         76.57569       67.97000       43.19732
H         76.19860       69.15109       45.60529
H         74.53917       69.75373       45.77702
N         77.83032       63.06083       44.79567
C         78.44591       62.09140       45.69750
C         77.41421       61.39386       46.57994
O         77.81420       60.54938       47.36468
C         79.29383       61.05447       44.90270
C         80.46968       61.73695       44.19046
C         78.46251       60.24077       43.89472
H         77.18823       62.69147       44.08072
H         79.13774       62.60017       46.40649
H         79.73248       60.33852       45.63347
H         81.10129       60.97822       43.68070
H         80.11146       62.46583       43.43491
H         81.10481       62.27029       44.93013
H         78.04870       60.88643       43.09345
H         79.10097       59.47089       43.41203
H         77.62658       59.71923       44.40651
N         76.08892       61.73643       46.55618
C         75.10600       61.14680       47.46436
C         73.87528       60.59643       46.75706
O         73.01876       60.07837       47.46900
C         74.65874       62.20187       48.50772
C         73.96026       63.40315       47.90295
N         72.65408       63.64641       48.15956
O         74.58070       64.16997       47.18205
H         75.77593       62.48747       45.93283
H         75.56096       60.30688       48.03210
H         75.53595       62.55340       49.09222
H         73.97329       61.70244       49.22814
H         72.10337       63.01465       48.75869
H         72.18492       64.46445       47.74287
N         73.65070       60.71444       45.41374
C         72.31724       60.48748       44.86980
C         72.32815       60.08941       43.40467
O         72.88170       60.82148       42.59458
C         71.50758       61.79159       45.02837
C         70.06523       61.60352       44.63298
C         69.53311       62.28119       43.52520
C         69.23962       60.74313       45.37621
C         68.19619       62.09395       43.16246
C         67.90327       60.56167       45.01556
C         67.37655       61.23326       43.90815
O         66.08511       61.04483       43.57174
H         74.33786       61.20693       44.82318
H         71.80817       59.68949       45.45407
H         71.99022       62.58552       44.41504
H         71.52841       62.13332       46.08496
H         70.15343       62.94622       42.93723
H         69.62937       60.21643       46.23864
H         67.79951       62.61746       42.30219
H         67.27761       59.89784       45.59881
H         65.68149       61.48983       42.81327
N         71.61176       58.99777       42.99612
C         71.34576       58.60400       41.61153
C         72.49172       57.86080       40.94075
O         72.20658       56.94896       40.17465
C         70.77303       59.76905       40.77075
C         70.20430       59.30734       39.42094
C         69.59230       60.46126       38.67946
O         70.35101       61.51464       38.32049
O         68.40559       60.44748       38.39324
H         71.10512       58.46344       43.71986
H         70.52521       57.85143       41.67633
H         71.55177       60.53880       40.59033
H         69.94309       60.23247       41.34882
H         69.42706       58.53140       39.59929
H         71.00639       58.86891       38.79115
N         73.80225       58.14631       41.18655
C         74.89413       57.40058       40.56582
C         74.92921       55.94248       41.01944
O         75.71010       55.18870       40.45435
C         76.25850       58.05148       40.89884
C         76.41813       59.51179       40.43395
C         76.48753       59.65622       38.94132
O         75.53844       59.37075       38.22966
O         77.61758       60.12865       38.38962
H         74.03815       58.91162       41.82359
H         74.74087       57.40997       39.46600
H         77.08645       57.45656       40.45213
H         76.38344       58.02979       42.00405
H         77.38088       59.88032       40.84922
H         75.61534       60.16241       40.83546
N         74.13963       55.47216       42.03176
C         74.14682       54.09348       42.47653
H         73.12623       53.67003       42.36832
H         74.85093       53.46118       41.89683
H         74.43877       54.05594       43.54679
H         73.50495       56.10460       42.53712
Ca        77.90595       60.31804       36.17369
O         77.64838       63.01053       34.46389
H         78.39797       62.48890       34.08715
H         77.14237       63.32317       33.67322
O         75.64110       59.47158       34.55369
H         74.73529       59.15825       34.80041
H         75.81608       59.06701       33.66729

Ca 1.0



