%chk=apoCaM-CA-Ng.loop2.water3.frame456.chk
%nprocshared=20
%mem=10GB
%nosave
#b3lyp/svp scf=(tight,noincore,xqc) Test 
#IOP(5/87=12) Density=Current Pop=(MK,readradii) iop(6/33=2) iop(6/42=6)

apoCaM-CA-Ng.loop2.water3.frame456 

   -2  1 
C         68.44014       78.47188       63.17517
C         68.22417       79.82339       62.56310
O         68.84637       80.12003       61.55297
H         68.83211       78.58886       64.20237
H         67.48009       77.91534       63.20733
H         69.17397       77.88240       62.58422
N         67.33420       80.69496       63.12053
C         67.05118       82.01538       62.56383
C         67.34506       83.10685       63.59037
O         67.61292       82.79768       64.74378
C         65.58167       82.02888       62.09221
C         65.19719       83.26660       61.33433
O         64.21063       84.06014       61.79221
O         65.76801       83.55183       60.29311
H         66.81459       80.39617       63.96044
H         67.70824       82.19625       61.68512
H         64.91547       81.90196       62.97356
H         65.41820       81.16560       61.41059
N         67.35310       84.42048       63.21765
C         67.69067       85.51687       64.12034
C         69.09531       85.33608       64.64668
O         69.98405       85.00991       63.87097
C         67.59121       86.86099       63.39602
H         67.15360       84.65356       62.23554
H         66.96170       85.54725       64.96142
H         66.55702       87.00831       63.01847
H         67.82412       87.68718       64.10286
H         68.30031       86.90475       62.54253
N         69.35940       85.50830       65.97057
C         70.65407       85.19136       66.57045
C         71.80363       85.96301       65.95625
O         71.59229       86.84296       65.13260
C         70.59195       85.36189       68.11066
C         69.58397       84.41739       68.70499
O         69.45732       84.32497       69.91536
O         68.85940       83.62977       67.88943
H         68.58828       85.82077       66.58219
H         70.86856       84.12067       66.35585
H         70.34273       86.40942       68.38636
H         71.57344       85.10537       68.56046
N         73.07765       85.63313       66.30558
C         74.24891       86.25637       65.72154
C         75.42653       85.31020       65.55305
O         76.48468       85.81873       65.21031
H         73.21545       84.94814       67.06145
H         74.58123       87.04379       66.42955
H         74.01413       86.74657       64.75113
N         75.36830       83.96417       65.81984
C         76.56556       83.12922       65.86900
C         76.48785       81.95507       64.90941
O         75.54348       81.17928       64.98104
C         76.75084       82.58789       67.29874
C         78.16071       82.08103       67.48308
N         78.41973       80.76663       67.64544
O         79.08606       82.87972       67.47218
H         74.47587       83.51737       66.07252
H         77.46094       83.74394       65.63364
H         75.99205       81.79679       67.49841
H         76.59144       83.39185       68.04928
H         77.65869       80.07482       67.61813
H         79.38964       80.43973       67.77085
N         77.49416       81.73050       64.02093
C         77.54307       80.57602       63.13894
C         77.70936       79.26115       63.88347
O         77.73978       79.23108       65.10468
H         78.27642       82.40088       63.97053
H         78.43125       80.68405       62.47791
H         76.63719       80.54777       62.49656
N         77.88038       78.12030       63.16418
C         78.15023       76.80977       63.75474
C         77.00954       76.27821       64.62878
O         77.30615       75.70311       65.66696
C         78.58232       75.76735       62.67744
C         77.57837       75.52994       61.53609
O         79.83799       76.10946       62.14010
H         77.88067       78.21567       62.13899
H         79.04292       76.89887       64.41636
H         78.72171       74.79602       63.20229
H         79.72942       76.92628       61.58743
H         76.58850       75.23977       61.91735
H         77.44670       76.43241       60.90751
H         77.95511       74.71565       60.88065
N         75.69934       76.38753       64.26247
C         74.58359       75.78046       65.00219
C         73.62563       76.84467       65.52193
O         73.31423       77.78579       64.80557
C         73.86191       74.75561       64.08153
C         74.77078       73.53576       63.75409
C         72.51431       74.27615       64.65633
C         75.11541       72.62578       64.94170
H         75.47749       76.89903       63.39476
H         74.94215       75.22913       65.89414
H         73.62712       75.27399       63.12464
H         75.72503       73.88152       63.32378
H         74.26402       72.91351       62.98605
H         72.64108       73.80272       65.65100
H         71.80947       75.12666       64.76811
H         72.04175       73.55264       63.95919
H         74.20236       72.17718       65.38207
H         75.75917       71.79415       64.58647
H         75.67748       73.16584       65.72922
N         73.10958       76.72408       66.78618
C         72.23799       77.71888       67.41438
C         72.12569       77.46196       68.93083
O         71.05272       77.58359       69.50192
C         70.84912       77.73598       66.71639
C         69.94762       78.86778       67.14413
O         68.81222       78.93157       66.70167
O         70.37683       79.82338       67.99132
H         73.38887       75.89644       67.33411
H         72.74750       78.70058       67.30101
H         70.34437       76.76548       66.92423
H         70.96712       77.82231       65.61722
N         73.23027       77.08449       69.63625
C         73.28471       76.84397       71.07882
C         72.22937       75.83101       71.51966
O         72.20963       74.73736       70.96980
C         74.67279       76.26229       71.46828
C         75.83361       77.24593       71.53422
C         76.21831       78.07328       70.45789
C         76.58893       77.31127       72.72451
C         77.30930       78.93426       70.58264
C         77.68896       78.16602       72.83174
C         78.04725       78.97957       71.76040
H         74.08306       76.91362       69.09673
H         73.13992       77.79716       71.62308
H         74.92074       75.43073       70.77220
H         74.57704       75.80303       72.47821
H         75.70663       78.08752       69.51558
H         76.34112       76.68602       73.57266
H         77.58915       79.56750       69.76293
H         78.26643       78.19507       73.74558
H         78.89734       79.64438       71.83791
N         71.36578       76.08089       72.55935
C         70.47085       75.07583       73.11306
C         69.19037       74.91412       72.31309
O         68.43503       74.00033       72.61241
C         70.18393       75.61073       74.52217
C         70.14538       77.10791       74.28055
C         71.33894       77.30100       73.34662
H         70.97737       74.08855       73.19514
H         69.29232       75.17952       75.02650
H         71.07539       75.41453       75.16104
H         69.21201       77.32970       73.71551
H         70.16432       77.74891       75.18761
H         71.18162       78.21574       72.73494
H         72.29228       77.37029       73.91584
N         68.84887       75.78337       71.32167
C         67.60397       75.66388       70.57241
C         67.72299       74.63649       69.45794
O         66.72226       74.37485       68.80340
C         67.22673       77.02092       69.95965
C         67.03085       78.10176       71.03629
C         66.81853       79.41649       70.37546
O         67.76036       79.83870       69.52463
O         65.83004       80.09664       70.59740
H         69.45588       76.59233       71.13909
H         66.78337       75.37614       71.26740
H         66.28443       76.93287       69.37456
H         68.04260       77.32069       69.26200
H         67.94845       78.20589       71.65184
H         66.18215       77.84846       71.70647
N         68.90941       74.03711       69.15002
C         69.03008       73.09474       68.06089
H         70.08168       72.74673       67.97760
H         68.37410       72.21816       68.24383
H         68.74355       73.58425       67.10538
H         69.76550       74.26105       69.67620
Ca        67.80174       81.82957       68.58648
O         70.20098       81.67019       65.21576
H         70.25051       81.96397       64.27137
H         71.11612       81.35985       65.42888
O         65.48060       80.52950       66.36169
H         64.70921       81.03224       65.99703
H         65.09110       79.68135       66.69223
O         65.46023       83.61218       67.58200
H         65.13509       82.87506       68.15807
H         65.84614       84.26875       68.21486

Ca 1.0



