%chk=apoCaM-CA-Ng.loop4.water4.frame749.chk
%nprocshared=20
%mem=10GB
%nosave
#b3lyp/svp scf=(tight,noincore,xqc) Test 
#IOP(5/87=12) Density=Current Pop=(MK,readradii) iop(6/33=2) iop(6/42=6)

apoCaM-CA-Ng.loop4.water4.frame749 

   -3  1 
C         14.54141       25.18553        2.37192
C         15.56730       25.33064        1.28772
O         15.37918       24.77723        0.21410
H         13.69362       24.55291        2.03060
H         15.00416       24.70944        3.26198
H         14.14998       26.18570        2.65269
N         16.68941       26.07626        1.50693
C         17.75506       26.27214        0.52656
C         17.19898       26.95693       -0.70852
O         17.22845       26.38012       -1.78830
C         18.45770       24.93991        0.16881
C         18.99803       24.18210        1.34651
O         18.87171       24.63479        2.60874
O         19.49964       23.08526        1.15869
H         16.79805       26.53617        2.42439
H         18.53127       26.93663        0.96838
H         19.29692       25.14660       -0.53053
H         17.74091       24.26755       -0.34763
N         16.67445       28.21083       -0.61230
C         16.09692       28.92253       -1.75167
C         17.01414       30.08357       -2.16129
O         17.92402       30.38763       -1.40122
C         14.60458       29.29420       -1.44277
C         14.35472       30.12307       -0.15191
C         13.76927       28.00310       -1.35679
C         15.01729       31.49754       -0.12615
H         16.71141       28.68605        0.30196
H         16.08637       28.24649       -2.62143
H         14.17896       29.86498       -2.28103
H         14.66302       29.55495        0.75120
H         13.25887       30.29840       -0.06972
H         12.69371       28.24416       -1.21421
H         13.85909       27.41950       -2.29829
H         14.10146       27.36677       -0.50949
H         14.71946       32.09123       -1.01579
H         14.69617       32.03943        0.78862
H         16.11680       31.41266       -0.07678
N         16.92959       30.76032       -3.35431
C         15.98945       30.48880       -4.44515
C         16.12186       29.08648       -5.03080
O         15.17270       28.62665       -5.64988
C         16.09264       31.55583       -5.56122
C         17.42835       31.63737       -6.26245
O         17.58580       32.46188       -7.14798
O         18.45455       30.83114       -5.92873
H         17.60623       31.52762       -3.49345
H         14.96857       30.59562       -4.04632
H         15.88198       32.55061       -5.11155
H         15.30904       31.35463       -6.32395
N         17.24856       28.33724       -4.85488
C         17.35401       26.94623       -5.25593
C         17.17488       26.72557       -6.73923
O         17.94772       27.25778       -7.52288
H         18.05881       28.74276       -4.36377
H         16.60440       26.35881       -4.68402
H         18.35865       26.56383       -4.97306
N         16.19433       25.88440       -7.17969
C         16.02328       25.48459       -8.57420
C         14.66482       25.85333       -9.15409
O         14.46090       25.58327      -10.33035
C         16.29349       23.96268       -8.72196
C         15.41751       23.02298       -7.91863
O         15.58558       21.81955       -8.02962
O         14.47316       23.46847       -7.06912
H         15.57274       25.46810       -6.47364
H         16.77416       26.00157       -9.21084
H         17.34558       23.76624       -8.42481
H         16.19255       23.69005       -9.79568
N         13.68738       26.47226       -8.42854
C         12.39140       26.81062       -9.00219
C         11.53627       25.60290       -9.35492
O         10.45106       25.81015       -9.87663
H         13.86094       26.74359       -7.45078
H         12.55069       27.43457       -9.90930
H         11.81493       27.41688       -8.27025
N         11.93150       24.32223       -9.07735
C         11.16230       23.11608       -9.37265
C          9.87441       23.01495       -8.56130
O          9.14281       22.05512       -8.76616
C         10.92731       22.95927      -10.89298
C         12.26436       22.94084      -11.66017
C         12.11220       22.71347      -13.14344
N         13.21315       22.68079      -13.92961
O         11.00779       22.55684      -13.64397
H         12.83528       24.16460       -8.62975
H         11.77015       22.23568       -9.06191
H         10.28059       23.77283      -11.28256
H         10.40740       21.99211      -11.07204
H         12.90751       22.13026      -11.25256
H         12.78322       23.91079      -11.51660
H         14.15190       22.81191      -13.52390
H         13.12964       22.52501      -14.94498
N          9.55755       23.91553       -7.58260
C          8.35940       23.82498       -6.75324
C          8.69861       23.60954       -5.28016
O          7.77187       23.47914       -4.49435
C          7.48600       25.10476       -6.92020
C          8.20052       26.38782       -6.44839
C          7.02410       25.26914       -8.37344
H         10.20069       24.69219       -7.38561
H          7.74395       22.95065       -7.05955
H          6.57339       24.98185       -6.29533
H          7.51386       27.25681       -6.52995
H          8.50681       26.30146       -5.38477
H          9.09856       26.60890       -7.06150
H          6.35465       26.15122       -8.46393
H          7.88997       25.41438       -9.05266
H          6.45986       24.37015       -8.69946
N          9.98869       23.59440       -4.82614
C         10.34389       23.50400       -3.41247
C         11.24518       22.28189       -3.20905
O         11.55549       21.60721       -4.18087
C         10.98385       24.87698       -3.04997
C         11.03253       25.26566       -1.58501
N         10.24095       26.26507       -1.12072
O         11.81087       24.72249       -0.82007
H         10.76922       23.71242       -5.48542
H          9.42891       23.38023       -2.79425
H         10.33108       25.63906       -3.53041
H         11.98519       24.98690       -3.51897
H          9.58488       26.76108       -1.74268
H         10.27755       26.54760       -0.13027
N         11.71411       21.93923       -1.97784
C         12.65147       20.84361       -1.74998
C         12.26236       20.09502       -0.49350
O         11.97426       20.74887        0.49558
C         14.06769       21.43412       -1.59813
C         15.13036       20.35911       -1.52906
C         15.96377       20.24334       -0.40452
C         15.30604       19.46868       -2.60540
C         16.95140       19.25285       -0.35783
C         16.28955       18.47904       -2.55450
C         17.11623       18.36678       -1.43367
O         18.06490       17.40919       -1.40495
H         11.45610       22.51742       -1.17520
H         12.67002       20.15419       -2.61947
H         14.10162       22.09502       -0.70343
H         14.29320       22.06319       -2.48723
H         15.85335       20.91939        0.43403
H         14.68583       19.53900       -3.48983
H         17.58928       19.17595        0.51341
H         16.41076       17.80106       -3.39055
H         18.66390       17.29924       -0.65356
N         12.28768       18.73162       -0.43277
C         11.93298       17.99754        0.77850
C         13.16519       17.29721        1.33767
O         13.48441       16.21863        0.85688
C         10.81793       16.97370        0.47487
C          9.54164       17.63262       -0.06379
C          8.49853       16.59634       -0.37198
O          8.71681       15.73250       -1.20729
O          7.31208       16.62145        0.26376
H         12.59659       18.19734       -1.25900
H         11.52997       18.67921        1.54537
H         10.57076       16.41697        1.40690
H         11.18929       16.24535       -0.28077
H          9.76343       18.19301       -0.99745
H          9.14818       18.34482        0.69319
N         13.97028       17.83408        2.30662
C         13.82620       19.15975        2.90503
C         12.59337       19.26038        3.78461
O         12.42406       18.44004        4.67615
C         15.08024       19.50922        3.73889
C         15.06856       20.98961        4.14598
C         16.32848       21.40603        4.84034
O         16.27740       22.02574        5.89062
O         17.51379       21.20775        4.23801
H         14.79736       17.27818        2.57914
H         13.79368       19.90275        2.07949
H         15.97570       19.34470        3.09806
H         15.16304       18.85084        4.63194
H         14.18965       21.22667        4.78376
H         14.99784       21.60099        3.21867
N         11.70823       20.28082        3.61279
C         10.52679       20.43254        4.43119
H          9.86478       19.55043        4.30583
H         10.81510       20.53949        5.49823
H          9.96992       21.34300        4.12170
H         11.88561       20.99298        2.89192
Ca        18.90940       22.95126        4.08601
O         21.73833       21.34821        3.52444
H         22.09488       20.55816        4.00312
H         21.54130       21.01827        2.61184
O         19.62593       20.72220        6.46840
H         18.72333       20.33224        6.58403
H         20.11746       20.45356        7.28440
O         21.59615       23.25480        6.12604
H         21.49770       23.43167        7.09505
H         22.55532       23.41640        5.94025
O         21.77012       24.85746        3.26231
H         22.49849       25.07540        3.89582
H         21.43722       25.73710        2.95489

Ca 1.0



