%chk=apoCaM-CA-Ng.loop2.water3.frame317.chk
%nprocshared=20
%mem=10GB
%nosave
#b3lyp/svp scf=(tight,noincore,xqc) Test 
#IOP(5/87=12) Density=Current Pop=(MK,readradii) iop(6/33=2) iop(6/42=6)

apoCaM-CA-Ng.loop2.water3.frame317 

   -2  1 
C         37.80031      104.67248       35.45462
C         37.22234      106.05632       35.45253
O         36.71720      106.48061       36.47943
H         38.60490      104.60067       36.21463
H         36.99722      103.94556       35.70372
H         38.21639      104.40420       34.46099
N         37.26259      106.82693       34.33039
C         36.62151      108.13500       34.24293
C         35.11393      107.93678       34.29316
O         34.59957      107.18919       33.47090
C         37.04207      108.82942       32.92581
C         36.53845      110.24394       32.78127
O         36.83640      110.88511       31.78643
O         35.78470      110.82398       33.73572
H         37.75283      106.45784       33.50035
H         36.98049      108.77630       35.07912
H         36.69645      108.22951       32.05568
H         38.15330      108.87426       32.89553
N         34.33516      108.57107       35.21912
C         32.88977      108.35696       35.27460
C         32.53324      106.95703       35.76282
O         31.39865      106.54774       35.56170
C         32.20856      109.39546       36.16771
H         34.77534      109.24228       35.86703
H         32.49039      108.49772       34.24404
H         32.42779      110.41730       35.79098
H         31.10651      109.25026       36.15402
H         32.57214      109.30844       37.21342
N         33.44029      106.18013       36.43460
C         33.22659      104.79742       36.86456
C         32.14512      104.63753       37.94443
O         31.88270      103.50736       38.33255
C         32.94938      103.93209       35.60601
C         32.96139      102.45257       35.86465
O         31.97523      101.77366       35.62816
O         34.08614      101.86431       36.30315
H         34.36446      106.57466       36.63227
H         34.18027      104.43633       37.31308
H         33.74671      104.13149       34.85546
H         31.97678      104.21291       35.15335
N         31.46023      105.69876       38.46679
C         30.30078      105.53931       39.33219
C         30.54610      105.04765       40.74897
O         29.54795      104.84202       41.42357
H         31.67573      106.65561       38.15969
H         29.59354      104.84442       38.82722
H         29.78429      106.51925       39.42271
N         31.78484      104.87792       41.30485
C         31.96292      104.42042       42.69206
C         33.28896      104.89191       43.27168
O         34.33342      104.62766       42.69319
C         31.89711      102.88194       42.79708
C         30.53355      102.32136       42.48532
N         30.35756      101.44858       41.46742
O         29.57710      102.64791       43.17355
H         32.61632      105.13549       40.75276
H         31.16213      104.85157       43.33458
H         32.13062      102.58157       43.84301
H         32.67079      102.43881       42.13346
H         31.15075      101.15358       40.88042
H         29.42208      101.06500       41.26663
N         33.30711      105.58577       44.44822
C         34.51511      106.10349       45.07204
C         35.48196      105.03911       45.55266
O         35.22241      103.85070       45.42112
H         32.41349      105.78979       44.92234
H         34.22155      106.69396       45.96890
H         35.02742      106.78572       44.36285
N         36.63457      105.43790       46.16734
C         37.61294      104.52039       46.75660
C         38.29961      103.60329       45.74331
O         39.00001      102.70022       46.17944
C         38.67944      105.29198       47.59011
C         39.56313      106.23960       46.75573
O         38.06833      105.98235       48.65412
H         36.77704      106.45276       46.26906
H         37.05951      103.86533       47.46632
H         39.36601      104.54793       48.05030
H         37.69228      106.83274       48.30825
H         40.30624      106.73819       47.41258
H         40.11889      105.67047       45.99089
H         38.96577      107.02546       46.24920
N         38.15568      103.75983       44.39562
C         38.74693      102.86135       43.40779
C         37.63386      102.17828       42.64249
O         36.66641      102.81867       42.25541
C         39.73182      103.62526       42.46995
C         40.98077      104.14262       43.23396
C         40.17976      102.77485       41.26282
C         41.87690      103.05392       43.85060
H         37.59072      104.54118       44.03416
H         39.32387      102.04983       43.89334
H         39.20039      104.50854       42.05073
H         40.65552      104.82620       44.03659
H         41.60598      104.73553       42.53168
H         39.31296      102.52617       40.62114
H         40.89088      103.34724       40.62993
H         40.65848      101.82627       41.58137
H         42.74586      103.53050       44.34946
H         41.34275      102.46235       44.62001
H         42.27347      102.36698       43.07506
N         37.77497      100.86358       42.31919
C         36.82227      100.10967       41.52246
C         36.64427       98.68721       42.09035
O         36.03104       97.85283       41.44011
C         37.38532      100.10085       40.08882
C         36.41012       99.66871       39.03938
O         35.13972       99.34795       39.35333
O         36.76280       99.67012       37.87150
H         38.67549      100.40840       42.53736
H         35.84154      100.63517       41.48957
H         38.30634       99.48328       40.05023
H         37.65463      101.14201       39.81065
N         37.16775       98.34110       43.30517
C         37.15888       96.99106       43.86219
C         38.06450       96.07632       43.04228
O         39.22130       96.43817       42.86326
C         37.74561       97.03959       45.29896
C         37.84844       95.66863       45.92502
C         36.69521       94.96174       46.30090
C         39.11047       95.07899       46.11931
C         36.80456       93.68282       46.85738
C         39.21464       93.79850       46.66696
C         38.06278       93.10055       47.03644
H         37.60765       99.07127       43.88160
H         36.11692       96.61245       43.92658
H         37.14133       97.70266       45.95543
H         38.76271       97.48864       45.23422
H         35.71483       95.39957       46.16124
H         40.01374       95.60185       45.82950
H         35.91372       93.14061       47.14567
H         40.18918       93.34679       46.80069
H         38.14620       92.10842       47.46036
N         37.67878       94.83796       42.60104
C         38.62454       93.88012       42.05431
C         38.98793       94.15346       40.60965
O         39.86526       93.46535       40.10616
C         37.91466       92.53862       42.24296
C         36.46832       92.92565       42.00774
C         36.36914       94.24385       42.77793
H         39.56330       93.86551       42.65420
H         38.30896       91.70008       41.62966
H         37.99721       92.25109       43.31736
H         36.35740       93.13874       40.92036
H         35.71503       92.16408       42.30054
H         35.54772       94.86337       42.35972
H         36.20576       94.05877       43.85774
N         38.37830       95.12626       39.87233
C         38.81632       95.43867       38.52012
C         40.20930       96.03525       38.58726
O         41.11945       95.49832       37.97187
C         37.87688       96.43748       37.82358
C         36.45377       95.89769       37.58303
C         35.67634       96.92570       36.81016
O         36.07028       97.28676       35.71196
O         34.61464       97.54104       37.36037
H         37.60093       95.66546       40.27936
H         38.82230       94.51274       37.90121
H         38.32613       96.67941       36.83415
H         37.81933       97.37152       38.41767
H         35.95491       95.69871       38.55592
H         36.48797       94.95387       36.99817
N         40.43790       97.15128       39.33835
C         41.72960       97.79369       39.46003
H         42.51418       97.28357       38.86379
H         41.64869       98.84488       39.11141
H         42.03904       97.79478       40.52634
H         39.65731       97.56992       39.86450
Ca        34.27223       99.62960       36.55923
O         35.21723      100.02609       33.73084
H         35.86634       99.42852       33.28174
H         35.59219      100.93520       33.61552
O         32.37927       98.30177       34.57129
H         31.55467       98.84600       34.50632
H         32.06028       97.39126       34.79373
O         31.73501       98.80570       37.90508
H         30.97526       99.24100       38.36660
H         31.37917       97.93245       37.60303

Ca 1.0



