%chk=apoCaM-CA-Ng.loop3.water2.frame998.chk
%nprocshared=20
%mem=10GB
%nosave
#b3lyp/svp scf=(tight,noincore,xqc) Test 
#IOP(5/87=12) Density=Current Pop=(MK,readradii) iop(6/33=2) iop(6/42=6)

apoCaM-CA-Ng.loop3.water2.frame998 

   0  1 
C         81.90873      106.57659       53.95946
C         82.07453      108.06204       54.08766
O         81.94039      108.75649       53.08973
H         80.88650      106.35662       53.58303
H         82.65421      106.17268       53.24443
H         82.03514      106.06769       54.93800
N         82.32783      108.63057       55.30037
C         82.37977      110.07354       55.48349
C         83.56347      110.68252       54.75200
O         84.70006      110.30024       54.99209
C         82.36488      110.44393       56.98097
C         82.00596      111.89116       57.22884
O         81.78980      112.30977       58.48628
O         81.86288      112.68196       56.30958
H         82.40616      108.01888       56.12762
H         81.43403      110.47957       55.07081
H         83.32517      110.17703       57.47171
H         81.56542      109.85646       57.47073
N         83.33465      111.66120       53.83824
C         84.35738      112.33287       53.04092
C         85.37832      113.01549       53.92971
O         86.56443      112.78989       53.73207
C         83.68147      113.37691       52.12507
C         82.74430      112.71382       51.08957
C         81.75510      113.70346       50.46227
C         82.40936      114.81851       49.64130
N         81.38636      115.72673       49.12167
H         82.35574      111.96040       53.72006
H         84.88326      111.59760       52.39016
H         84.44581      113.97529       51.58240
H         83.10360      114.06528       52.77413
H         82.10746      111.94958       51.57665
H         83.34537      112.18830       50.31565
H         81.14729      114.15309       51.27782
H         81.06753      113.13305       49.80013
H         82.97558      114.36946       48.79566
H         83.11441      115.39991       50.27312
H         80.70446      115.20314       48.52563
H         80.87763      116.18055       49.91594
H         81.84281      116.46950       48.54565
N         84.99075      113.84006       54.94628
C         85.94271      114.54042       55.80525
C         86.06003      113.92056       57.18853
O         86.94659      114.33998       57.92075
C         85.59145      116.04353       55.87561
C         84.20223      116.30447       56.40561
O         83.38469      116.88963       55.71395
O         83.85310      115.90621       57.64233
H         83.98280      113.95011       55.13287
H         86.96474      114.45577       55.37548
H         85.67091      116.47200       54.85277
H         86.32438      116.57195       56.52279
N         85.22541      112.93313       57.62670
C         85.36563      112.30224       58.92961
C         84.34532      112.83349       59.90164
O         83.59651      112.06544       60.48820
H         84.45147      112.62464       57.03092
H         86.35724      112.53050       59.37538
H         85.31196      111.19755       58.81833
N         84.33803      114.16495       60.17646
C         83.53648      114.78263       61.22504
C         82.02144      114.74353       60.89466
O         81.75610      115.68660       59.89089
C         84.01736      116.24833       61.42738
C         85.49105      116.36871       61.75844
N         86.07358      117.58857       61.79015
O         86.17027      115.37403       61.97096
H         85.01796      114.75184       59.67154
H         83.71795      114.22107       62.16853
H         83.42907      116.74987       62.22471
H         83.85735      116.80177       60.47575
H         85.52572      118.43771       61.58873
H         87.08074      117.68192       61.98894
N         81.24653      115.02197       62.11899
C         79.83352      115.39794       61.93166
C         78.97604      114.35573       61.23761
O         79.26829      113.17055       61.31307
H         81.30653      114.18732       62.74725
H         79.77313      116.36816       61.39506
H         79.38524      115.58183       62.93280
N         77.85937      114.75513       60.55829
C         76.96396      113.83897       59.85274
C         77.70092      113.15740       58.66951
O         78.11006      114.16058       57.78862
C         75.71859      114.59884       59.31394
C         74.86819      115.21588       60.39516
C         74.27086      114.40783       61.37653
C         74.63330      116.60161       60.41102
C         73.45401      114.97580       62.35744
C         73.81333      117.16727       61.39179
C         73.22016      116.35834       62.36652
O         72.42536      116.91757       63.30076
H         77.63691      115.76303       60.54942
H         76.62412      113.05525       60.56299
H         75.06247      113.89859       58.75513
H         76.05127      115.38326       58.59800
H         74.42897      113.33702       61.37842
H         75.07518      117.24482       59.65982
H         72.99836      114.33894       63.10485
H         73.63376      118.23511       61.38961
H         71.98943      116.39133       63.98617
N         76.80602      112.22110       57.96066
C         77.42241      111.26655       57.00784
C         78.08427      111.98184       55.83595
O         79.06032      112.68783       56.03233
C         78.40992      110.25132       57.66809
C         78.96255      109.22462       56.63246
C         77.78806      109.50485       58.86082
C         77.92495      108.33311       55.94248
H         76.22425      111.68742       58.64647
H         76.57481      110.67334       56.60558
H         79.28051      110.81855       58.06464
H         79.69467      108.55892       57.13704
H         79.50051      109.76855       55.83578
H         76.87749      108.94849       58.55751
H         78.52424      108.78826       59.28434
H         77.52207      110.20754       59.67588
H         77.20327      108.92931       55.35142
H         78.44749      107.65457       55.23482
H         77.37730      107.70997       56.67653
N         77.64391      111.77621       54.56452
C         78.24936      112.42078       53.40542
C         77.22218      113.12849       52.52889
O         77.63488      113.70579       51.53013
C         79.06114      111.38136       52.62317
O         78.24467      110.31976       52.20632
H         76.88677      111.09604       54.40409
H         78.97450      113.19951       53.72390
H         79.87072      111.01697       53.29997
H         79.54885      111.84706       51.74050
H         78.75990      109.48414       52.35936
N         75.88398      113.15726       52.82128
C         74.91857      113.86092       51.97665
C         75.20054      115.35998       51.96151
O         75.92659      115.82258       52.83094
C         73.49216      113.61473       52.48788
H         75.53045      112.66586       53.65452
H         75.02235      113.44522       50.95082
H         73.26189      112.52813       52.46055
H         73.39033      113.97455       53.53408
H         72.74243      114.14900       51.87541
N         74.73152      116.20712       50.99625
C         73.94492      115.82671       49.82593
C         72.75109      116.75736       49.63694
O         72.88288      117.93340       49.94836
C         74.84452      115.96121       48.59260
H         75.03770      117.19205       51.05391
H         73.62416      114.77327       49.86669
H         74.29582      115.68487       47.66796
H         75.21091      117.00554       48.48535
H         75.72190      115.28713       48.69100
N         71.61014      116.38879       48.97808
C         71.31129      115.04061       48.51359
C         70.94435      114.13565       49.67421
O         71.57345      113.09936       49.83585
C         70.25877      114.99962       47.36965
C         68.75885      115.28464       47.61371
C         68.37897      116.71641       47.89411
O         68.65742      117.29561       49.07528
O         67.72812      117.33930       47.06972
H         70.95258      117.14180       48.74844
H         72.21917      114.64231       48.01002
H         70.28792      113.95243       46.99098
H         70.61411      115.64732       46.53787
H         68.34047      114.61448       48.39185
H         68.25714      115.00667       46.65889
N         69.94310      114.47805       50.53426
C         69.54307      113.67416       51.67088
H         68.46985      113.40729       51.57145
H         70.13361      112.73895       51.75925
H         69.67813      114.26480       52.60162
H         69.44120      115.36411       50.39578
Ca        80.10802      114.86869       58.57568
O         78.80582      116.27051       55.76855
H         78.43904      116.25130       54.84915
H         78.03133      116.50394       56.33934
O         81.08445      115.01118       54.17661
H         81.78636      115.67560       53.96471
H         80.38043      115.18021       53.50190

Ca 1.0



