%chk=apoCaM-CA-Ng.loop2.water4.frame349.chk
%nprocshared=20
%mem=10GB
%nosave
#b3lyp/svp scf=(tight,noincore,xqc) Test 
#IOP(5/87=12) Density=Current Pop=(MK,readradii) iop(6/33=2) iop(6/42=6)

apoCaM-CA-Ng.loop2.water4.frame349 

   -2  1 
C         60.96396       92.37562       40.02468
C         59.59462       92.94861       40.24689
O         59.17394       93.02264       41.39255
H         61.71468       92.99753       40.55494
H         61.00603       91.34165       40.42739
H         61.22251       92.34640       38.94552
N         58.84148       93.38413       39.19507
C         57.51045       93.95690       39.34961
C         56.52787       93.12209       38.55107
O         56.64635       93.06627       37.33507
C         57.54269       95.42492       38.88498
C         56.26857       96.18333       39.14659
O         56.20095       97.36129       38.83499
O         55.21170       95.59676       39.74242
H         59.23174       93.31695       38.24178
H         57.21779       93.94857       40.42239
H         57.78260       95.46680       37.79953
H         58.35592       95.94502       39.43685
N         55.57110       92.38976       39.18749
C         54.68103       91.45884       38.50274
C         55.05215       90.03868       38.89339
O         55.96962       89.85476       39.68224
C         53.22544       91.77980       38.86599
H         55.51808       92.43077       40.21732
H         54.79019       91.53790       37.39890
H         53.06481       91.67581       39.96068
H         52.97841       92.81980       38.56495
H         52.52215       91.09931       38.34124
N         54.37543       88.97565       38.37707
C         54.68385       87.59251       38.71659
C         53.54877       87.06717       39.56126
O         52.83124       86.16365       39.15456
C         54.92712       86.77066       37.43160
C         56.07942       87.33076       36.64835
O         57.27062       87.44650       37.25395
O         55.93980       87.68660       35.48967
H         53.58488       89.14644       37.73719
H         55.60374       87.51653       39.34059
H         54.01323       86.75448       36.79975
H         55.17936       85.72592       37.71859
N         53.33953       87.62659       40.78533
C         52.21669       87.30663       41.64257
C         52.62010       86.59266       42.91118
O         51.76153       86.46111       43.77202
H         53.99774       88.34582       41.12480
H         51.46294       86.67589       41.12492
H         51.72076       88.26731       41.90199
N         53.85578       86.02762       43.07962
C         54.20298       85.24792       44.26588
C         55.57031       85.67830       44.78272
O         56.53880       85.58956       44.03967
C         54.11890       83.74695       43.90780
C         54.06534       82.85396       45.12700
N         55.12743       82.71692       45.94668
O         53.03766       82.23916       45.37222
H         54.53683       86.06034       42.30567
H         53.43835       85.41396       45.05614
H         54.93272       83.44061       43.21524
H         53.15464       83.59956       43.37024
H         56.00579       83.19537       45.73516
H         55.07533       82.11366       46.78085
N         55.71742       86.18236       46.04348
C         56.98088       86.69416       46.56972
C         58.06271       85.64268       46.71536
O         57.83005       84.48508       46.41227
H         54.88503       86.25691       46.64746
H         56.80057       87.12665       47.57733
H         57.34511       87.50609       45.90452
N         59.29944       85.99606       47.17599
C         60.39800       85.03655       47.32036
C         61.51779       85.29380       46.31664
O         62.40274       84.45480       46.21374
C         60.91886       84.99403       48.77956
C         61.62521       86.28311       49.23003
O         59.87525       84.66729       49.66397
H         59.46664       86.98511       47.41283
H         60.02530       84.01705       47.08601
H         61.67452       84.18096       48.84889
H         59.27002       85.45242       49.72614
H         61.98665       86.16542       50.27321
H         62.50580       86.48157       48.58795
H         60.94357       87.15724       49.19134
N         61.52900       86.40099       45.51904
C         62.48386       86.63207       44.43923
C         61.69910       86.68715       43.14553
O         60.54574       87.10206       43.16737
C         63.29497       87.93370       44.70077
C         64.12996       87.84456       46.00691
C         64.19678       88.31143       43.51020
C         65.19526       86.73867       46.02812
H         60.79916       87.11739       45.63890
H         63.19109       85.78204       44.34454
H         62.57396       88.77227       44.83108
H         63.44691       87.68745       46.86502
H         64.64095       88.81799       46.17109
H         64.75888       89.24231       43.73665
H         64.91535       87.50145       43.27085
H         63.58623       88.51409       42.60588
H         65.93483       86.87452       45.21338
H         65.74231       86.77360       46.99303
H         64.74095       85.73212       45.94302
N         62.25220       86.25808       41.97454
C         61.47371       86.15386       40.75117
C         61.64277       84.75941       40.15847
O         61.88009       84.62782       38.96886
C         61.86501       87.29892       39.78770
C         60.93915       87.39335       38.60653
O         60.00407       86.61456       38.49289
O         61.06329       88.37764       37.69754
H         63.24221       85.96704       41.95558
H         60.39474       86.27655       40.99435
H         62.91659       87.18271       39.45423
H         61.78027       88.26083       40.33967
N         61.58337       83.66459       40.96664
C         61.77679       82.28904       40.50408
C         63.07139       82.14402       39.70199
O         64.11759       82.50105       40.22664
C         61.87577       81.34035       41.72256
C         60.62165       81.30041       42.55997
C         60.62647       81.80343       43.87369
C         59.44250       80.73710       42.04497
C         59.46841       81.74696       44.65418
C         58.28902       80.67440       42.83355
C         58.30152       81.18049       44.13616
H         61.43491       83.82699       41.97416
H         60.90754       81.99279       39.88474
H         62.73438       81.67802       42.34605
H         62.09861       80.30296       41.38869
H         61.52334       82.24293       44.29303
H         59.42177       80.33325       41.04044
H         59.47679       82.13725       45.66247
H         57.38631       80.22910       42.43636
H         57.40866       81.13050       44.74533
N         63.10280       81.58722       38.44630
C         64.33960       81.31370       37.72741
C         64.89861       82.53459       37.00895
O         66.02173       82.45705       36.52987
C         63.92489       80.21457       36.74397
C         62.51517       80.64401       36.38124
C         61.95316       81.04967       37.74364
H         65.11725       80.91068       38.41370
H         64.61836       80.04907       35.89183
H         63.83114       79.25836       37.30886
H         62.59898       81.55427       35.74526
H         61.90284       79.89251       35.83909
H         61.13696       81.79106       37.60208
H         61.58293       80.16572       38.30863
N         64.17489       83.67909       36.86085
C         64.70327       84.87890       36.22243
C         65.80584       85.46255       37.07853
O         66.91869       85.61045       36.59355
C         63.58985       85.93000       36.01790
C         62.55286       85.45287       34.98906
C         61.43853       86.44247       34.83289
O         61.66981       87.58752       34.47749
O         60.16955       86.05844       35.06739
H         63.20584       83.69407       37.19828
H         65.10858       84.62627       35.21547
H         64.04172       86.87330       35.63689
H         63.09452       86.14990       36.98773
H         62.11635       84.48123       35.30172
H         63.04906       85.31323       34.00419
N         65.55718       85.81447       38.37166
C         66.54913       86.39964       39.24922
H         67.52815       86.54396       38.74606
H         66.18650       87.38891       39.59921
H         66.69688       85.73926       40.12876
H         64.61682       85.65809       38.76210
Ca        59.18894       88.32222       36.47157
O         57.09287       90.38759       35.95063
H         56.39485       90.36654       35.24967
H         57.61742       91.20244       35.75406
O         60.59995       90.93386       35.62928
H         59.94684       91.41172       35.05915
H         61.09532       91.65293       36.09557
O         58.85340       88.77450       33.53881
H         59.07023       88.33330       32.67965
H         58.12654       89.40946       33.31889
O         58.99723       90.26821       38.77703
H         59.23697       89.73873       39.57828
H         58.17883       89.83611       38.43142

Ca 1.0



