%chk=apoCaM-CA-Ng.loop1.water1.frame830.chk
%nprocshared=20
%mem=10GB
%nosave
#b3lyp/svp scf=(tight,noincore,xqc) Test 
#IOP(5/87=12) Density=Current Pop=(MK,readradii) iop(6/33=2) iop(6/42=6)

apoCaM-CA-Ng.loop1.water1.frame830 

   0  1 
C         47.13094       80.61445       18.49326
C         45.99124       79.65615       18.32921
O         46.18975       78.46822       18.54347
H         47.94635       80.33308       17.79350
H         46.82033       81.65659       18.27110
H         47.50993       80.56556       19.53466
N         44.76035       80.09712       17.93951
C         43.63097       79.19420       17.72807
C         43.93649       78.16931       16.63824
O         45.00433       78.21109       16.04240
C         42.32844       79.99473       17.46673
C         42.33294       80.88121       16.24867
O         43.29431       80.93207       15.49802
O         41.25342       81.64520       15.99388
H         44.62525       81.10985       17.79725
H         43.46376       78.62871       18.67195
H         42.14566       80.64194       18.35240
H         41.46609       79.29994       17.38710
N         43.04514       77.18187       16.36012
C         43.33242       76.06540       15.46943
C         42.50602       76.21525       14.21723
O         41.58297       75.44787       13.98050
C         43.12038       74.74341       16.24656
C         44.16820       74.64054       17.37622
C         44.06059       73.39535       18.26651
C         42.78344       73.38243       19.12048
N         42.82797       72.30225       20.10656
H         42.12980       77.18528       16.83577
H         44.38973       76.06147       15.12163
H         43.25445       73.87619       15.56318
H         42.08671       74.71599       16.65326
H         44.11193       75.53299       18.03608
H         45.17554       74.63077       16.90433
H         44.93190       73.42512       18.95734
H         44.13396       72.46723       17.65870
H         41.89138       73.25706       18.46994
H         42.69190       74.34997       19.66279
H         43.63520       72.44811       20.75688
H         41.94566       72.31272       20.66744
H         42.92275       71.37613       19.63105
N         42.85442       77.19205       13.32743
C         42.14687       77.43031       12.07823
C         42.96959       78.25464       11.00930
O         43.94165       79.09163       11.56573
C         40.70627       77.97645       12.32210
C         40.44128       79.00237       13.42321
O         39.67459       78.69852       14.32368
O         40.93908       80.25522       13.42146
H         43.68742       77.75947       13.54112
H         41.98412       76.44878       11.60095
H         40.09230       77.09354       12.60737
H         40.28809       78.33562       11.35747
N         43.59799       77.46690        9.92712
C         42.65405       76.61359        9.18085
C         42.87920       75.15969        9.53359
O         43.83318       74.84929       10.23476
H         43.99468       78.16347        9.25292
H         42.79320       76.72747        8.08342
H         41.60099       76.90657        9.39539
N         41.98729       74.21533        9.12515
C         42.07418       72.80880        9.50860
C         41.90923       71.92718        8.28364
O         40.96720       72.12910        7.52814
C         40.98509       72.51799       10.55658
C         41.07917       71.14300       11.17492
O         41.94971       70.35143       10.84722
O         40.20293       70.79365       12.13426
H         41.15804       74.52718        8.59509
H         43.04860       72.59576       10.00259
H         39.97907       72.65816       10.10723
H         41.10251       73.24999       11.38604
N         42.77966       70.90608        8.03306
C         42.69251       70.07598        6.84160
C         43.18623       70.79931        5.60504
O         43.14530       70.21481        4.53222
H         43.52422       70.69628        8.71411
H         41.64819       69.71541        6.71031
H         43.34636       69.18693        6.96723
N         43.70220       72.05861        5.68687
C         44.23417       72.81152        4.56461
C         43.39099       74.06027        4.36773
O         42.41275       74.24606        5.07999
C         45.73772       73.12466        4.82080
C         45.99069       74.00647        6.05556
O         46.43269       71.91259        4.96597
H         43.73342       72.53511        6.59481
H         44.17613       72.22104        3.62339
H         46.13433       73.65937        3.92891
H         47.39629       72.11119        4.82948
H         45.66708       73.51012        6.99261
H         47.07597       74.22024        6.14769
H         45.46509       74.97294        5.95742
N         43.72710       74.97436        3.42072
C         42.97896       76.20544        3.19637
C         42.50606       76.33676        1.75930
O         41.81215       77.30988        1.49290
C         43.77765       77.44406        3.71837
C         45.27699       77.40326        3.31439
C         43.59849       77.53873        5.24773
C         46.07780       78.62586        3.76760
H         44.57194       74.81145        2.85472
H         42.01888       76.18872        3.75830
H         43.30981       78.36582        3.30719
H         45.35206       77.32885        2.20875
H         45.76851       76.51277        3.76368
H         44.01995       76.65598        5.76123
H         44.05774       78.45745        5.66063
H         42.51671       77.59996        5.49777
H         45.64885       79.55313        3.33609
H         46.10372       78.70704        4.87379
H         47.12990       78.52148        3.42796
N         42.74744       75.38937        0.80041
C         42.11736       75.44397       -0.51558
C         43.14433       75.65012       -1.60626
O         44.33799       75.51886       -1.36828
C         41.25697       74.17572       -0.73955
C         40.17383       74.05548        0.34184
O         40.63893       74.22398       -1.99941
H         43.33971       74.57193        1.00604
H         41.44395       76.32688       -0.57534
H         41.93044       73.28741       -0.68712
H         40.36406       73.29561       -2.22137
H         39.56822       73.14034        0.17467
H         40.62741       73.98570        1.35312
H         39.50066       74.93918        0.31008
N         42.72214       76.11807       -2.81265
C         43.61297       76.53986       -3.87815
C         43.65143       78.06030       -3.87488
O         44.73566       78.61784       -3.78349
C         43.15874       75.93167       -5.23233
C         44.14623       76.25062       -6.36353
O         41.87739       76.39502       -5.57570
H         41.71398       76.29636       -2.93741
H         44.64741       76.17267       -3.68807
H         43.13017       74.82399       -5.10511
H         41.51639       75.77404       -6.26140
H         45.15203       75.84831       -6.12124
H         43.80180       75.78185       -7.31028
H         44.23393       77.34173       -6.52804
N         42.50021       78.79420       -3.93707
C         42.46851       80.25334       -3.97115
C         41.66258       80.82886       -2.81658
O         41.06171       80.09004       -2.04856
C         41.82098       80.67827       -5.30461
C         42.69652       80.26513       -6.49674
C         42.03304       80.50892       -7.85712
C         40.86623       79.53803       -8.11733
N         40.32059       79.72562       -9.45987
H         41.59514       78.30474       -3.99237
H         43.49379       80.67771       -3.89942
H         41.67722       81.77853       -5.35455
H         40.81947       80.20160       -5.35605
H         42.95923       79.19226       -6.43964
H         43.63801       80.85391       -6.44001
H         42.80286       80.32589       -8.63756
H         41.69788       81.56581       -7.93741
H         40.05371       79.68603       -7.37574
H         41.23596       78.49153       -8.02283
H         41.06671       79.56982      -10.17626
H         39.55414       79.03171       -9.61661
H         39.93197       80.69148       -9.55594
N         41.60066       82.18441       -2.66841
C         40.75995       82.86815       -1.69258
C         41.08595       82.47468       -0.25325
O         40.17695       81.99484        0.40932
C         40.82190       84.40268       -1.91195
C         39.78472       85.16930       -1.08109
C         39.87902       86.64390       -1.35686
O         38.92871       87.24364       -1.83360
O         41.01403       87.31281       -1.07515
H         42.14483       82.76358       -3.32624
H         39.70790       82.57016       -1.90678
H         40.60846       84.60912       -2.98473
H         41.83169       84.79955       -1.69041
H         39.95163       85.00101        0.00336
H         38.76747       84.80460       -1.34602
N         42.30390       82.63226        0.34737
C         43.51388       83.12942       -0.27446
H         44.31004       82.36255       -0.17581
H         43.40481       83.34634       -1.34841
H         43.84289       84.05228        0.24800
H         42.38745       82.36184        1.34007
Ca        42.69049       80.78773       12.20998
O         46.42029       80.15523       13.71106
H         47.37782       80.10524       13.95864
H         46.13066       79.21040       13.64951

Ca 1.0



