%chk=apoCaM-CA-Ng.loop4.water5.frame836.chk
%nprocshared=20
%mem=10GB
%nosave
#b3lyp/svp scf=(tight,noincore,xqc) Test 
#IOP(5/87=12) Density=Current Pop=(MK,readradii) iop(6/33=2) iop(6/42=6)

apoCaM-CA-Ng.loop4.water5.frame836 

   -3  1 
C         68.74847      -19.28812       52.54355
C         69.76635      -19.92065       51.63368
O         70.95553      -19.81863       51.89275
H         68.07222      -20.07240       52.94722
H         69.23570      -18.77101       53.39732
H         68.13774      -18.55314       51.98081
N         69.34764      -20.61905       50.54355
C         70.21794      -21.34331       49.61771
C         70.95587      -22.46425       50.33288
O         72.16954      -22.58255       50.23637
C         71.14090      -20.40485       48.80414
C         70.32520      -19.39174       48.05741
O         70.53973      -18.08537       48.26179
O         69.41860      -19.74465       47.31955
H         68.33122      -20.67591       50.37115
H         69.55560      -21.84995       48.87975
H         71.71404      -21.00385       48.06629
H         71.86198      -19.88395       49.47084
N         70.22707      -23.35390       51.05781
C         70.75628      -24.56357       51.68411
C         70.83279      -25.65664       50.61202
O         69.85431      -25.79826       49.89158
C         69.87437      -24.94748       52.92735
C         68.41801      -25.35312       52.57939
C         69.94463      -23.80861       53.96702
C         67.63805      -25.86856       53.78943
H         69.21246      -23.18983       51.10048
H         71.77019      -24.35944       52.09041
H         70.30332      -25.83352       53.41454
H         68.44600      -26.19256       51.85542
H         67.85091      -24.51580       52.12793
H         71.00507      -23.58878       54.21918
H         69.47434      -22.88005       53.58085
H         69.45077      -24.09289       54.91677
H         68.17392      -26.72267       54.25708
H         67.48648      -25.06984       54.54219
H         66.63793      -26.21755       53.45919
N         71.92838      -26.44117       50.35646
C         73.15418      -26.51614       51.14811
C         74.17590      -27.39928       50.44964
O         73.88462      -28.56380       50.20581
C         72.86854      -27.16863       52.51851
C         74.08403      -27.24229       53.38834
O         74.63145      -26.21408       53.75132
O         74.55430      -28.43717       53.79637
H         71.86074      -27.06203       49.53333
H         73.57785      -25.49679       51.27674
H         72.45469      -28.19127       52.36384
H         72.14402      -26.59124       53.08251
N         75.41555      -26.92264       50.15110
C         76.46280      -27.75824       49.58834
C         77.68076      -27.85503       50.48489
O         78.60730      -28.54702       50.08624
H         75.63521      -25.93449       50.34848
H         76.77334      -27.33193       48.61034
H         76.10293      -28.79284       49.40398
N         77.79395      -27.17046       51.66746
C         79.04041      -27.14550       52.42713
C         78.89815      -27.30971       53.94121
O         79.92823      -27.51592       54.56496
C         79.83113      -25.87242       52.04549
C         79.01263      -24.60163       52.05228
O         78.85924      -23.97617       51.01529
O         78.43927      -24.14399       53.17411
H         77.04288      -26.53227       51.96037
H         79.67772      -28.00666       52.12590
H         80.19374      -26.01120       51.00358
H         80.72404      -25.76672       52.69311
N         77.71531      -27.25991       54.62165
C         77.65643      -27.41671       56.07599
C         78.40627      -26.32324       56.83892
O         78.71943      -26.53354       58.00104
H         76.83952      -27.12373       54.11121
H         78.10633      -28.40300       56.32617
H         76.60255      -27.43822       56.42970
N         78.71410      -25.13067       56.24890
C         79.51938      -24.05543       56.83364
C         78.93217      -23.43568       58.09466
O         79.67053      -22.77919       58.81745
C         80.99398      -24.49500       57.03874
C         81.73071      -24.86478       55.73529
C         81.94408      -23.72676       54.75799
N         82.58629      -23.96047       53.59025
O         81.55843      -22.59523       55.01068
H         78.36328      -24.97006       55.30446
H         79.53014      -23.21568       56.11195
H         81.01620      -25.36655       57.72677
H         81.57900      -23.67821       57.51337
H         81.18190      -25.66705       55.22494
H         82.73355      -25.25709       56.00709
H         82.93093      -24.90368       53.35868
H         82.74062      -23.19716       52.91476
N         77.60111      -23.49686       58.37142
C         76.99267      -22.81805       59.51546
C         75.93252      -21.80818       59.08275
O         75.30711      -21.23315       59.96235
C         76.39632      -23.85849       60.50736
C         75.33498      -24.76624       59.86323
C         77.50989      -24.70661       61.13709
H         76.98559      -24.02621       57.73683
H         77.74698      -22.23244       60.08712
H         75.91019      -23.30412       61.34132
H         74.51172      -24.15994       59.43083
H         75.77541      -25.40013       59.06565
H         74.89967      -25.44082       60.63048
H         78.24039      -24.04917       61.65651
H         77.08283      -25.40274       61.88988
H         78.04745      -25.29781       60.36753
N         75.66137      -21.54214       57.76700
C         74.54189      -20.70340       57.34666
C         75.00222      -19.48260       56.55377
O         76.15508      -19.39816       56.15895
C         73.59712      -21.60675       56.52709
C         72.34112      -20.93672       56.04321
N         72.08356      -20.84178       54.71867
O         71.54147      -20.48905       56.85127
H         76.21836      -21.98771       57.02507
H         73.99723      -20.32173       58.23768
H         73.29716      -22.47153       57.15871
H         74.16632      -22.00621       55.65911
H         72.74268      -21.21844       54.02087
H         71.21865      -20.39140       54.39033
N         74.12397      -18.45344       56.35858
C         74.45167      -17.21117       55.65127
C         73.39565      -16.13518       55.94306
O         72.36290      -16.44994       56.51663
C         74.50859      -17.49940       54.12708
C         74.99887      -16.33394       53.30225
C         74.13222      -15.65037       52.42952
C         76.33843      -15.92448       53.39748
C         74.59932      -14.56657       51.67751
C         76.80552      -14.84964       52.63562
C         75.93948      -14.16393       51.77783
O         76.40575      -13.12311       51.05809
H         73.20434      -18.55067       56.80446
H         75.42197      -16.84081       56.04740
H         73.48330      -17.79387       53.80683
H         75.17355      -18.36212       53.91014
H         73.09334      -15.94388       52.34073
H         77.02256      -16.44490       54.05575
H         73.91980      -14.04034       51.01841
H         77.84269      -14.54880       52.71368
H         75.84066      -12.61621       50.45776
N         73.59108      -14.83000       55.58158
C         72.56931      -13.80938       55.78569
C         72.17249      -13.22734       54.44198
O         72.96852      -12.49940       53.86604
C         73.05304      -12.69630       56.73254
C         73.27503      -13.22057       58.15684
C         73.72441      -12.11917       59.07264
O         73.01663      -11.14093       59.25528
O         74.90685      -12.21301       59.70959
H         74.47613      -14.54870       55.13815
H         71.68735      -14.25342       56.26768
H         72.27259      -11.90295       56.77384
H         73.99164      -12.24610       56.33913
H         74.04033      -14.02555       58.14586
H         72.32322      -13.64145       58.54944
N         70.98542      -13.51352       53.82871
C         70.00585      -14.48431       54.32263
C         69.32600      -14.02046       55.59479
O         69.38710      -12.84466       55.92843
C         68.93433      -14.74785       53.24790
C         69.54308      -15.42057       52.01296
C         68.59981      -15.37508       50.85222
O         68.16072      -16.51143       50.29730
O         68.32897      -14.30618       50.32984
H         70.82054      -13.06946       52.91119
H         70.53947      -15.43975       54.53121
H         68.47987      -13.76965       52.97666
H         68.12872      -15.41389       53.63064
H         69.82043      -16.46711       52.26973
H         70.47004      -14.91045       51.67719
N         68.69978      -14.93742       56.38480
C         68.05672      -14.61211       57.64049
H         66.99884      -14.94485       57.60620
H         68.57396      -15.14636       58.46572
H         68.07929      -13.52413       57.85801
H         68.70571      -15.92946       56.10078
Ca        68.73194      -16.79039       48.16119
O         68.07047      -14.89185       45.26864
H         67.16674      -14.49981       45.36646
H         68.66539      -14.11191       45.13435
O         70.63191      -16.75488       45.47863
H         70.48001      -17.29795       44.66490
H         71.52645      -17.03289       45.79947
O         70.21686      -13.98644       47.68952
H         70.44240      -13.11443       47.27884
H         69.23772      -13.94551       47.82947
O         66.11565      -15.30976       47.85545
H         65.73092      -14.41836       47.66218
H         65.72394      -15.56785       48.72725
O         67.27665      -18.04651       45.55736
H         67.85062      -18.34713       44.80859
H         66.43812      -17.74787       45.12368

Ca 1.0



