%chk=apoCaM-CA-Ng.loop2.water4.frame1174.chk
%nprocshared=20
%mem=10GB
%nosave
#b3lyp/svp scf=(tight,noincore,xqc) Test 
#IOP(5/87=12) Density=Current Pop=(MK,readradii) iop(6/33=2) iop(6/42=6)

apoCaM-CA-Ng.loop2.water4.frame1174 

   -2  1 
C        105.61145       39.06000       30.36491
C        104.60239       38.00402       30.01440
O        104.28300       37.91791       28.83709
H        106.53638       38.86894       29.78025
H        105.20572       40.05018       30.06986
H        105.89334       39.10715       31.42720
N        104.03366       37.13701       30.90151
C        104.23306       37.05264       32.35183
C        102.87859       37.21867       33.04537
O        101.93074       37.62030       32.38305
C        104.97639       35.73326       32.70897
C        104.23819       34.49881       32.29607
O        103.83775       33.58684       33.19554
O        103.99175       34.29952       31.11837
H        103.36469       36.46671       30.49619
H        104.88536       37.85349       32.73999
H        105.17121       35.69568       33.80083
H        105.96665       35.73196       32.20711
N        102.70529       36.94664       34.37563
C        101.46271       37.20167       35.10695
C        100.22180       36.48949       34.55198
O         99.13954       36.79115       35.03712
C        101.22833       38.71982       35.18498
H        103.49590       36.57898       34.92271
H        101.59277       36.86489       36.16006
H        102.11252       39.21046       35.64665
H        101.05534       39.16385       34.18406
H        100.34875       38.94444       35.82599
N        100.27701       35.53443       33.57242
C         99.07831       34.93056       32.97756
C         98.95231       33.45678       33.33887
O         99.81539       32.91946       34.01848
C         99.09931       35.13821       31.43937
C        100.26211       34.42591       30.80411
O        100.38458       33.09105       30.95236
O        101.14021       35.05983       30.24163
H        101.19399       35.21638       33.22897
H         98.16353       35.42627       33.36733
H         99.15980       36.22918       31.22731
H         98.16321       34.75933       30.97952
N         97.86348       32.74794       32.92043
C         97.65415       31.33524       33.19606
C         98.58822       30.45495       32.39087
O         99.79379       30.54762       32.56247
H         97.11872       33.24390       32.40801
H         96.60893       31.08218       32.91696
H         97.76201       31.13892       34.28407
N         98.08344       29.56535       31.48399
C         98.91103       28.69113       30.65411
C         98.73484       29.04525       29.18821
O         97.91986       29.90114       28.86886
C         98.54082       27.21882       30.92020
C         98.82746       26.83283       32.35114
N         97.83426       26.43082       33.17803
O         99.97527       26.87942       32.76705
H         97.06053       29.50956       31.35874
H         99.98803       28.83909       30.88408
H         99.12970       26.54508       30.26191
H         97.46382       27.06757       30.68506
H         96.85816       26.38333       32.85252
H         98.04293       26.16856       34.15320
N         99.52645       28.47011       28.23535
C         99.48042       28.89053       26.84351
C         98.17818       28.52975       26.15960
O         97.39387       27.78150       26.72613
H        100.24097       27.78202       28.51611
H        100.31143       28.42495       26.27162
H         99.62249       29.99110       26.82979
N         97.83084       29.04843       24.94544
C         98.60469       30.05494       24.22363
C         98.02179       31.42274       24.53493
O         96.81918       31.53171       24.72375
C         98.60893       29.75116       22.70514
C         99.39875       30.79501       21.90434
O         99.19409       28.49416       22.47760
H         96.89505       28.81391       24.57620
H         99.66553       30.04960       24.55231
H         97.56402       29.76571       22.31279
H         98.46934       27.81829       22.53001
H         99.38847       30.53119       20.82552
H         98.94596       31.80346       22.00757
H        100.45420       30.83511       22.24956
N         98.84312       32.50723       24.63319
C         98.40390       33.85341       24.99302
C         98.68019       34.78983       23.81584
O         99.82951       34.84322       23.39967
C         99.18452       34.32670       26.25459
C         99.02822       33.36246       27.46056
C         98.80147       35.76621       26.65149
C         97.60832       33.23041       28.01998
H         99.84981       32.37230       24.44913
H         97.33616       33.86684       25.26189
H        100.26973       34.33409       26.00468
H         99.68650       33.72154       28.27496
H         99.39066       32.35261       27.17820
H         97.71900       35.84741       26.87966
H         99.38528       36.08763       27.53993
H         99.02945       36.47558       25.82893
H         97.22390       34.20704       28.37653
H         96.91615       32.81212       27.26208
H         97.62312       32.54300       28.89107
N         97.74424       35.60726       23.23463
C         96.33093       35.70152       23.61184
C         95.64499       36.94772       23.02634
O         96.24707       37.70118       22.27352
C         95.56590       34.41881       23.17218
C         95.65959       34.14446       21.69600
O         95.20973       34.93779       20.88542
O         96.22254       32.99928       21.26325
H         98.09308       36.23232       22.49215
H         96.26388       35.82782       24.71398
H         94.49667       34.47518       23.45984
H         95.96356       33.53707       23.68773
N         94.33829       37.18831       23.33370
C         93.51303       38.24843       22.76046
C         92.74802       38.97609       23.86988
O         92.15784       38.27985       24.68713
C         92.46956       37.56055       21.85110
C         91.49917       38.54611       21.24692
C         90.21104       38.67666       21.79319
C         91.87021       39.35323       20.15830
C         89.31274       39.60745       21.26929
C         90.96123       40.27605       19.62748
C         89.68578       40.40556       20.18580
H         93.86309       36.52314       23.96202
H         94.10498       38.94182       22.12844
H         91.90793       36.82818       22.47287
H         92.95854       36.97498       21.04179
H         89.91063       38.07301       22.64067
H         92.85789       39.26723       19.72237
H         88.32906       39.71146       21.70817
H         91.24583       40.89508       18.78667
H         88.98606       41.12505       19.78131
N         92.57621       40.33775       23.92027
C         93.09593       41.31755       22.97479
C         94.59036       41.47825       23.07571
O         95.28292       41.36611       22.07417
C         92.38445       42.62795       23.36419
C         91.08462       42.11274       23.94869
C         91.60090       40.95779       24.79601
H         92.77202       41.04056       21.95308
H         92.91101       43.13296       24.20519
H         92.28702       43.36214       22.53606
H         90.49488       42.86773       24.51058
H         90.46077       41.70180       23.12248
H         92.12473       41.35137       25.69583
H         90.76999       40.28624       25.10315
N         95.15122       41.74082       24.28802
C         96.57703       41.93720       24.48398
C         96.98463       43.25859       23.83610
O         96.49622       44.28063       24.29931
C         96.90276       41.97736       25.99666
C         96.56471       40.64387       26.69221
C         96.80166       40.72586       28.17166
O         97.91617       40.96503       28.60748
O         95.78013       40.52692       29.02743
H         94.52813       41.79098       25.10776
H         97.10818       41.06060       24.07838
H         96.32350       42.79883       26.47639
H         97.98652       42.18589       26.13551
H         97.18664       39.82894       26.26339
H         95.49817       40.38062       26.53295
N         97.84004       43.38285       22.77693
C         98.47510       42.31082       22.03578
H         99.57675       42.42151       22.10247
H         98.20879       41.29766       22.37008
H         98.17545       42.38974       20.96931
H         98.04826       44.33746       22.44362
Ca       102.08944       32.52869       32.30017
O        102.07924       30.84992       29.61805
H        102.29324       29.93252       29.31424
H        101.09010       30.88543       29.61653
O        101.77018       30.59374       35.02178
H        101.79285       30.98841       35.92939
H        101.25515       29.75473       35.12870
O        104.85219       30.88050       32.94543
H        105.38183       31.33689       32.24414
H        105.26271       29.98347       33.02492
O        102.56068       29.07277       32.16256
H        101.85905       28.76350       32.78766
H        102.71322       28.30207       31.56048

Ca 1.0



