%chk=apoCaM-CA-Ng.loop3.water2.frame927.chk
%nprocshared=20
%mem=10GB
%nosave
#b3lyp/svp scf=(tight,noincore,xqc) Test 
#IOP(5/87=12) Density=Current Pop=(MK,readradii) iop(6/33=2) iop(6/42=6)

apoCaM-CA-Ng.loop3.water2.frame927 

   0  1 
C        -26.44912        5.55953      100.67233
C        -27.71466        4.93212      101.17234
O        -28.62747        4.71370      100.39101
H        -25.60081        4.86709      100.86528
H        -26.50641        5.75041       99.58013
H        -26.26603        6.51548      101.20407
N        -27.81399        4.57715      102.48071
C        -28.95319        3.84758      103.03458
C        -30.22075        4.71154      103.02458
O        -30.08776        5.92776      103.00721
C        -28.55537        3.37638      104.45624
C        -29.35939        2.26152      105.04305
O        -28.96830        1.73291      106.21789
O        -30.30772        1.77714      104.45374
H        -26.99975        4.77272      103.08560
H        -29.08881        2.94503      102.40966
H        -28.52918        4.24351      105.15243
H        -27.52881        2.95379      104.39613
N        -31.47807        4.16256      103.04737
C        -32.70430        4.96558      103.13185
C        -33.42657        4.77927      104.46757
O        -34.39107        5.49114      104.71151
C        -33.63435        4.71720      101.92015
C        -34.22976        3.29950      101.81199
C        -35.16841        3.21782      100.59397
C        -35.81921        1.83570      100.45303
N        -36.71214        1.79627       99.29275
H        -31.57554        3.14013      103.02306
H        -32.43847        6.04391      103.09848
H        -33.06797        4.94396      100.99052
H        -34.47872        5.43939      101.98578
H        -34.81037        3.06845      102.73180
H        -33.41858        2.54861      101.70118
H        -34.59181        3.44155       99.66965
H        -35.97423        3.97717      100.70251
H        -36.40508        1.60519      101.37042
H        -35.02772        1.06414      100.33491
H        -36.17088        1.96537       98.41352
H        -37.16398        0.85556       99.23724
H        -37.46255        2.51898       99.38750
N        -32.99205        3.87846      105.39459
C        -33.53464        3.73280      106.74018
C        -32.43505        4.05366      107.74981
O        -32.63222        4.94916      108.55947
C        -34.21984        2.35430      106.90936
C        -33.46925        1.14858      106.39830
O        -33.92759        0.50311      105.46874
O        -32.33235        0.73466      106.97463
H        -32.20439        3.26826      105.15834
H        -34.34580        4.47349      106.92761
H        -35.16131        2.40695      106.31851
H        -34.50936        2.20423      107.97218
N        -31.21980        3.43905      107.69564
C        -30.07240        3.82339      108.50482
C        -29.42288        2.67202      109.24857
O        -28.39380        2.92097      109.86141
H        -31.06367        2.73098      106.97755
H        -30.32840        4.62331      109.23212
H        -29.30667        4.23602      107.81196
N        -29.93880        1.40429      109.25864
C        -29.30262        0.28775      109.96225
C        -29.07381       -0.90330      109.04365
O        -29.60833       -0.92130      107.95030
C        -30.17134       -0.16236      111.16741
C        -31.28641       -1.14528      110.82813
N        -32.30960       -0.83688      109.99768
O        -31.23979       -2.26632      111.31386
H        -30.81745        1.23370      108.76812
H        -28.32408        0.63084      110.36293
H        -30.56542        0.72615      111.70638
H        -29.49433       -0.69307      111.87252
H        -32.40582        0.09078      109.57387
H        -33.02335       -1.54698      109.77351
N        -28.36899       -1.98445      109.47369
C        -28.34780       -3.26537      108.77915
C        -27.87959       -3.20379      107.33997
O        -26.76944       -2.75377      107.09404
H        -27.89097       -1.93071      110.38650
H        -29.37065       -3.69652      108.81544
H        -27.68018       -3.95645      109.33825
N        -28.66439       -3.72365      106.34112
C        -28.23391       -3.81705      104.94396
C        -28.26618       -2.44598      104.23175
O        -27.98671       -1.37750      105.06948
C        -29.17790       -4.72806      104.12765
C        -29.35137       -6.12427      104.67385
C        -30.63428       -6.57531      105.03251
C        -28.25899       -6.99824      104.79781
C        -30.82313       -7.87729      105.49956
C        -28.45052       -8.30252      105.26932
C        -29.73141       -8.74756      105.61712
O        -29.90271      -10.01093      106.05601
H        -29.56228       -4.15508      106.60680
H        -27.20875       -4.24997      104.93287
H        -28.79440       -4.81527      103.08767
H        -30.17233       -4.23285      104.07672
H        -31.49433       -5.92324      104.94069
H        -27.26328       -6.67586      104.52171
H        -31.81983       -8.20924      105.76262
H        -27.60380       -8.97150      105.35646
H        -30.77489      -10.35885      106.29211
N        -27.49632       -2.44047      102.97320
C        -27.43499       -1.18948      102.17588
C        -28.83883       -0.69056      101.81760
O        -29.57804       -0.34161      102.72267
C        -26.58090       -0.05483      102.85693
C        -26.32059        1.14780      101.90807
C        -25.24577       -0.56688      103.44024
C        -25.40966        0.84997      100.71005
H        -26.54230       -2.84397      103.11427
H        -26.91383       -1.47276      101.23929
H        -27.15545        0.36066      103.70961
H        -25.83975        1.96190      102.49460
H        -27.28717        1.54058      101.53192
H        -24.67524        0.27278      103.89198
H        -25.41831       -1.29935      104.25519
H        -24.62143       -1.05423      102.66346
H        -25.84145        0.07320      100.04928
H        -25.28026        1.77547      100.11134
H        -24.40099        0.52917      101.04415
N        -29.26374       -0.59117      100.51934
C        -30.58562       -0.07209      100.14777
C        -31.35177       -1.04233       99.26260
O        -30.88845       -1.34938       98.17253
C        -30.44206        1.25288       99.38988
O        -29.86571        2.22163      100.21770
H        -28.61369       -0.85280       99.76288
H        -31.19593        0.14128      101.05322
H        -31.45044        1.58665       99.04128
H        -29.80575        1.12980       98.48797
H        -30.55515        2.91852      100.38217
N        -32.56872       -1.52016       99.65799
C        -33.43886       -2.34576       98.82366
C        -34.82667       -1.70372       98.76951
O        -35.41024       -1.52682       99.82995
C        -33.53385       -3.74646       99.42388
H        -32.91049       -1.27257      100.59915
H        -33.00615       -2.46691       97.81047
H        -33.94550       -3.70941      100.45479
H        -34.18544       -4.38681       98.79225
H        -32.52144       -4.20251       99.46072
N        -35.44189       -1.29164       97.61927
C        -34.89398       -1.45752       96.27963
C        -34.96506       -2.92100       95.84925
O        -35.70916       -3.66881       96.46924
C        -35.71725       -0.62471       95.28175
H        -36.35189       -0.81317       97.71588
H        -33.85969       -1.05950       96.29619
H        -35.30546       -0.69317       94.25657
H        -36.77288       -0.97699       95.25858
H        -35.71279        0.44462       95.58145
N        -34.27898       -3.43414       94.78414
C        -33.25337       -2.73297       94.01755
C        -31.89956       -3.42716       94.15328
O        -30.93816       -2.93727       93.57623
C        -33.67310       -2.59318       92.53634
C        -33.74524       -3.92010       91.76362
C        -34.18875       -3.68380       90.34766
O        -35.31380       -4.26428       89.88871
O        -33.53221       -2.97062       89.60498
H        -34.46567       -4.41856       94.53702
H        -33.11793       -1.70376       94.39572
H        -32.93689       -1.93243       92.02598
H        -34.66307       -2.09040       92.49306
H        -34.46392       -4.60910       92.25199
H        -32.74479       -4.40371       91.74517
N        -31.73601       -4.56603       94.89232
C        -30.46168       -5.24023       95.00015
H        -29.70971       -4.56388       95.45694
H        -30.56610       -6.14223       95.64171
H        -30.11868       -5.56254       93.99422
H        -32.52441       -4.98997       95.39943
Ca       -30.17368       -0.81249      105.38971
O        -32.10358       -2.75161      106.63831
H        -31.89094       -3.31889      107.42129
H        -32.32913       -3.39329      105.91876
O        -31.87492       -2.34345      103.17918
H        -32.21054       -1.43249      102.98557
H        -31.30635       -2.57172      102.40108

Ca 1.0



