%chk=apoCaM-CA-Ng.loop2.water4.frame1061.chk
%nprocshared=20
%mem=10GB
%nosave
#b3lyp/svp scf=(tight,noincore,xqc) Test 
#IOP(5/87=12) Density=Current Pop=(MK,readradii) iop(6/33=2) iop(6/42=6)

apoCaM-CA-Ng.loop2.water4.frame1061 

   -2  1 
C         19.41633       61.07947       66.81794
C         20.03929       62.44039       66.64375
O         19.60885       63.16426       65.75803
H         18.60066       60.92274       66.07960
H         20.17315       60.28158       66.67474
H         18.97486       60.99998       67.83472
N         21.02791       62.90955       67.46081
C         21.61363       62.15733       68.56615
C         23.14180       62.19074       68.47624
O         23.64836       61.94368       67.39110
C         20.98736       62.66145       69.88601
C         21.12856       64.15000       70.08821
O         20.02782       64.92440       70.13654
O         22.22638       64.66603       70.20638
H         21.34745       63.88014       67.31927
H         21.34110       61.08548       68.48705
H         21.38981       62.10389       70.75658
H         19.89960       62.43487       69.84053
N         23.94216       62.44534       69.56290
C         25.40452       62.47677       69.54370
C         25.97964       63.65379       68.76661
O         27.19608       63.71950       68.65021
C         25.98287       61.13085       69.07561
H         23.51536       62.59455       70.48474
H         25.76094       62.61365       70.58915
H         25.58911       60.31375       69.71683
H         25.74119       60.90837       68.01802
H         27.08972       61.13615       69.17483
N         25.19096       64.64544       68.25398
C         25.72538       65.79793       67.53147
C         25.35718       67.13495       68.22835
O         24.97828       66.94699       69.55887
C         25.22180       65.75265       66.07114
C         23.71868       65.80885       65.89440
O         23.24579       65.67349       64.77778
O         22.88500       66.00409       66.93345
H         24.17521       64.59751       68.39000
H         26.83458       65.73587       67.49670
H         25.57135       64.79304       65.63376
H         25.67834       66.57564       65.48324
N         26.43806       68.13728       68.14591
C         25.99118       69.48023       68.56358
C         24.96266       70.12344       67.64332
O         24.48284       71.19793       67.97514
H         26.87711       68.17622       67.19735
H         26.87602       70.15080       68.62702
H         25.56455       69.41754       69.58815
N         24.57885       69.53954       66.47414
C         23.55129       70.07144       65.59162
C         22.19645       69.99001       66.25929
O         21.84084       68.91837       66.73146
C         23.44901       69.20975       64.31240
C         24.70034       69.14146       63.47476
N         24.71772       68.34631       62.38062
O         25.69598       69.78469       63.77337
H         25.03069       68.66944       66.17940
H         23.79911       71.11269       65.28574
H         22.63129       69.60298       63.67157
H         23.18548       68.17630       64.60735
H         23.88708       67.79033       62.12627
H         25.56010       68.27686       61.79212
N         21.34088       71.04713       66.22820
C         19.95216       70.93606       66.64667
C         19.56036       71.97562       67.66485
O         20.39976       72.77416       68.05661
H         21.64768       71.93071       65.79307
H         19.72687       69.93100       67.06164
H         19.33819       71.08589       65.73989
N         18.29066       72.05106       68.16498
C         17.19985       71.13295       67.82456
C         16.83719       71.22264       66.35068
O         16.46241       72.29435       65.89931
C         15.94515       71.45592       68.67824
C         14.78360       70.49182       68.39661
O         16.28069       71.37581       70.03990
H         18.10537       72.79217       68.85975
H         17.51897       70.09787       68.08060
H         15.61825       72.49474       68.42938
H         15.66610       71.98677       70.52514
H         13.90817       70.76779       69.02144
H         14.46802       70.54357       67.33355
H         15.07986       69.44831       68.63487
N         16.90421       70.11651       65.55133
C         16.49475       70.11118       64.14537
C         14.98851       70.35029       64.09646
O         14.27062       69.51634       64.63317
C         16.85728       68.74086       63.47838
C         18.37790       68.41484       63.54245
C         16.35519       68.64570       62.02581
C         19.28942       69.41960       62.83075
H         17.23972       69.23991       65.97691
H         17.04355       70.90590       63.60657
H         16.33620       67.93496       64.04375
H         18.54430       67.41196       63.09171
H         18.71174       68.34589       64.59745
H         16.59386       67.64602       61.60406
H         15.25243       68.76405       61.98021
H         16.82071       69.41992       61.38569
H         19.04597       69.49080       61.75270
H         19.21783       70.42458       63.29241
H         20.34190       69.08093       62.92092
N         14.39681       71.45440       63.54808
C         15.09664       72.58679       62.93772
C         15.57640       72.30236       61.51836
O         15.18867       71.30635       60.92942
C         14.19834       73.85442       62.94265
C         12.95770       73.76073       62.08099
O         12.81292       74.52572       61.14131
O         11.98077       72.87655       62.35989
H         13.37955       71.52273       63.68619
H         15.96755       72.84072       63.57076
H         14.80401       74.71611       62.58722
H         13.89031       74.08280       63.98597
N         16.40093       73.20209       60.89931
C         16.79528       73.13399       59.48901
C         17.72365       74.31043       59.16045
O         17.32408       75.42631       59.46159
C         15.53553       73.30632       58.59477
C         15.89264       73.27127       57.12669
C         15.97262       74.46440       56.38563
C         16.17431       72.04987       56.49386
C         16.34328       74.43431       55.03835
C         16.53061       72.02333       55.14145
C         16.62063       73.21478       54.41614
H         16.73374       73.99940       61.46126
H         17.28126       72.16011       59.27308
H         15.07624       74.28965       58.84398
H         14.75288       72.54427       58.78986
H         15.77341       75.41951       56.85580
H         16.11502       71.12130       57.04752
H         16.42199       75.35759       54.47862
H         16.74272       71.07946       54.65675
H         16.90731       73.19378       53.37268
N         18.90618       74.19776       58.46422
C         19.48499       72.98494       57.89301
C         20.13675       72.06694       58.91184
O         19.94396       72.25880       60.10488
C         20.53051       73.51628       56.89346
C         19.98129       74.88164       56.53870
C         19.57401       75.36427       57.91966
H         18.71175       72.45238       57.30245
H         21.49003       73.70666       57.41209
H         20.73153       72.84228       56.03282
H         20.70269       75.54138       56.01240
H         19.06961       74.75675       55.91269
H         20.48740       75.56804       58.52409
H         18.94959       76.28139       57.87369
N         20.93913       71.04413       58.49187
C         21.55907       70.06901       59.38696
C         22.16871       68.91427       58.57914
O         23.34463       68.62356       58.73711
C         22.57541       70.73233       60.37841
C         23.86154       71.35735       59.78496
C         23.60350       72.51278       58.86998
O         23.97173       72.46963       57.70628
O         23.00835       73.62347       59.34334
H         21.07484       70.92523       57.47543
H         20.75209       69.61636       60.00135
H         22.89919       69.94643       61.09096
H         22.06496       71.50505       60.98746
H         24.46843       70.59847       59.25626
H         24.48985       71.72984       60.62282
N         21.45073       68.17674       57.68017
C         20.04118       68.33687       57.38095
H         19.53737       69.09622       58.00550
H         19.92554       68.61903       56.31285
H         19.52207       67.37274       57.55460
H         21.94557       67.43693       57.15762
Ca        22.76332       67.48684       69.45496
O         19.63887       66.95225       67.22370
H         19.82468       66.63528       66.30446
H         19.07930       66.24100       67.62489
O         22.68048       70.04583       70.94444
H         23.44414       69.51293       71.28177
H         22.97067       70.35462       70.04992
O         21.82049       66.89477       72.14717
H         21.89915       67.68125       72.74250
H         21.08565       66.35648       72.53425
O         19.50408       68.44782       69.94118
H         19.25952       69.20440       70.53100
H         18.64365       67.99846       69.74534

Ca 1.0



