%chk=apoCaM-CA-Ng.loop1.water4.frame579.chk
%nprocshared=20
%mem=10GB
%nosave
#b3lyp/svp scf=(tight,noincore,xqc) Test 
#IOP(5/87=12) Density=Current Pop=(MK,readradii) iop(6/33=2) iop(6/42=6)

apoCaM-CA-Ng.loop1.water4.frame579 

   0  1 
C         72.39625       34.21759       79.30114
C         71.57926       34.64237       80.48261
O         72.03886       34.50369       81.60808
H         73.37648       33.80901       79.62809
H         71.85162       33.43157       78.73741
H         72.57385       35.08968       78.63830
N         70.34097       35.18122       80.29808
C         69.49881       35.60796       81.41442
C         69.09705       34.41412       82.26530
O         69.38272       33.28640       81.88404
C         68.23711       36.33266       80.90006
C         68.59373       37.52339       80.05204
O         69.32259       38.53073       80.56952
O         68.22810       37.57959       78.88857
H         70.00241       35.30307       79.33084
H         70.08454       36.31846       82.03981
H         67.62641       36.69076       81.75605
H         67.61960       35.62298       80.30511
N         68.44245       34.59042       83.44956
C         68.06518       33.47181       84.30288
C         66.57607       33.46874       84.52931
O         66.05139       34.41279       85.10554
C         68.79007       33.53136       85.65617
C         70.31682       33.47753       85.49050
C         71.06210       33.45310       86.83392
C         70.85015       32.14291       87.61499
N         71.59797       32.15523       88.87080
H         68.22628       35.54697       83.76963
H         68.35053       32.50521       83.83380
H         68.44860       32.65520       86.24055
H         68.51095       34.45688       86.20772
H         70.63611       34.38561       84.93465
H         70.61012       32.58518       84.89527
H         70.75030       34.32697       87.44557
H         72.14850       33.55025       86.62127
H         71.19321       31.28667       86.99235
H         69.77943       31.98953       87.84922
H         71.25537       32.93088       89.48282
H         71.44981       31.24565       89.36517
H         72.61914       32.27757       88.68264
N         65.83300       32.40339       84.12345
C         64.41820       32.27865       84.41933
C         64.08692       30.80435       84.60056
O         64.08985       30.08428       83.61202
C         63.62037       32.94562       83.28169
C         62.12689       32.90952       83.41709
O         61.57274       32.31911       84.33136
O         61.39345       33.52567       82.47340
H         66.30248       31.62518       83.63446
H         64.19180       32.82785       85.35543
H         63.88078       32.45800       82.31563
H         63.92566       34.01144       83.21970
N         63.81356       30.24265       85.81541
C         63.87212       30.92191       87.10228
C         65.28109       31.33300       87.49890
O         66.21601       31.15969       86.73074
H         63.55998       29.24272       85.83381
H         63.51168       30.21698       87.87772
H         63.18830       31.79656       87.11322
N         65.49379       31.86394       88.73617
C         66.78597       32.34168       89.21948
C         67.33186       31.44436       90.31730
O         68.52706       31.20481       90.29806
C         66.64835       33.80151       89.69141
C         67.94659       34.37198       90.19995
O         68.92100       34.44059       89.46851
O         68.03434       34.82028       91.46703
H         64.68563       31.94041       89.37194
H         67.53491       32.34073       88.40015
H         65.88670       33.86179       90.49776
H         66.30599       34.42468       88.83655
N         66.54464       30.95493       91.31888
C         67.01300       30.08998       92.39927
C         67.32993       28.66632       91.95625
O         66.60931       27.76669       92.36640
H         65.55181       31.22987       91.34303
H         66.18063       30.01443       93.13594
H         67.87221       30.55056       92.93034
N         68.39906       28.36862       91.16168
C         68.73366       27.02825       90.69489
C         68.64740       27.01701       89.18133
O         69.26206       27.85244       88.52801
C         70.13303       26.61395       91.18703
C         70.21455       26.63270       92.71968
O         70.46541       25.33459       90.70465
H         69.03618       29.11331       90.86925
H         68.01161       26.28398       91.10171
H         70.88188       27.33419       90.79208
H         69.78634       24.69452       91.04739
H         69.47057       25.93244       93.15794
H         71.22998       26.32896       93.04672
H         70.01246       27.65294       93.10937
N         67.81485       26.13627       88.57321
C         67.41005       26.21614       87.17508
C         65.98035       26.73336       87.19089
O         65.68464       27.72760       86.54969
C         67.50585       24.83824       86.45516
C         68.87347       24.13403       86.64359
C         67.16689       24.98781       84.95658
C         70.08719       24.90684       86.12559
H         67.35087       25.44172       89.17613
H         68.04307       26.94517       86.61945
H         66.75204       24.15192       86.90175
H         68.83990       23.14799       86.12848
H         69.02693       23.93235       87.72517
H         67.87645       25.67661       84.45088
H         67.20696       24.00188       84.44643
H         66.14406       25.39714       84.82014
H         70.01759       25.08257       85.03326
H         70.19148       25.87551       86.65424
H         71.00305       24.30821       86.31716
N         65.07536       26.14025       88.02471
C         63.72731       26.61493       88.27611
C         62.83682       25.39039       88.32277
O         63.12570       24.48670       89.09180
C         63.69405       27.45091       89.58618
C         64.07086       26.68091       90.85945
O         64.58027       28.53219       89.44118
H         65.38028       25.34369       88.59469
H         63.40184       27.30241       87.46513
H         62.65430       27.83661       89.70484
H         64.29192       29.23720       90.07800
H         65.09578       26.26265       90.78037
H         64.03723       27.37199       91.72833
H         63.35086       25.86719       91.07089
N         61.79691       25.24432       87.46092
C         61.06523       23.98680       87.34987
C         60.16138       24.04498       86.13893
O         60.38218       23.27702       85.21138
C         60.30300       23.59470       88.65597
C         59.64404       22.21563       88.51727
O         59.34147       24.56076       88.98998
H         61.59187       26.01161       86.80331
H         61.81788       23.18791       87.15577
H         61.02930       23.51505       89.49164
H         59.05822       24.38102       89.92480
H         60.41553       21.44880       88.28894
H         59.14844       21.93380       89.47027
H         58.88262       22.21556       87.70976
N         59.11887       24.91898       86.08073
C         58.20618       24.97971       84.95564
C         58.04666       26.41083       84.50125
O         57.69172       27.25323       85.31746
C         56.84625       24.40570       85.37793
C         55.95630       24.18274       84.14818
C         54.59868       23.60152       84.53617
C         53.79733       23.24364       83.27889
N         52.47707       22.72739       83.63070
H         58.93024       25.53784       86.88224
H         58.57990       24.34691       84.12038
H         56.35633       25.07066       86.12400
H         57.01222       23.41417       85.85489
H         56.47751       23.46746       83.47268
H         55.79858       25.13705       83.59969
H         54.04590       24.34980       85.14533
H         54.74290       22.67973       85.14146
H         54.35280       22.46934       82.70196
H         53.68037       24.14297       82.63426
H         51.92814       23.46734       84.12550
H         51.97305       22.45766       82.75544
H         52.57000       21.88488       84.24346
N         58.22612       26.75451       83.19769
C         57.97747       28.10723       82.72832
C         58.97304       29.08410       83.35932
O         58.51409       30.01314       84.00730
C         57.89872       28.15375       81.17902
C         57.25043       29.44377       80.63918
C         58.07384       30.65030       80.93704
O         57.60341       31.61897       81.74503
O         59.20689       30.73749       80.49022
H         58.47618       26.02081       82.51640
H         56.94876       28.38054       83.06054
H         57.22611       27.32911       80.85637
H         58.87741       27.97549       80.69895
H         56.24054       29.55952       81.08984
H         57.12751       29.36570       79.53769
N         60.33311       28.96231       83.28299
C         61.04334       27.88275       82.63060
H         62.13726       28.02323       82.76493
H         60.77662       26.90855       83.08788
H         60.84676       27.87242       81.54477
H         60.91022       29.67397       83.75840
Ca        59.21394       33.08352       82.23411
O         56.80016       34.97458       83.19353
H         56.21115       35.28910       83.92468
H         56.17938       34.72404       82.46397
O         57.47686       32.65593       85.18917
H         56.63197       32.98351       85.58827
H         57.95137       32.21550       85.93833
O         59.93262       35.15719       84.54720
H         60.68845       35.03434       85.17506
H         59.77433       36.13415       84.53530
O         58.97624       35.64555       80.67900
H         59.53880       34.94319       80.26546
H         59.60577       36.17213       81.23287

Ca 1.0



