%chk=apoCaM-CA-Ng.loop3.water5.frame406.chk
%nprocshared=20
%mem=10GB
%nosave
#b3lyp/svp scf=(tight,noincore,xqc) Test 
#IOP(5/87=12) Density=Current Pop=(MK,readradii) iop(6/33=2) iop(6/42=6)

apoCaM-CA-Ng.loop3.water5.frame406 

   0  1 
C         15.86198      102.76854      -19.60119
C         17.21811      102.51910      -20.19235
O         18.17918      103.10939      -19.71952
H         15.07910      102.16990      -20.11168
H         15.87187      102.49298      -18.52527
H         15.60713      103.84470      -19.69672
N         17.37818      101.65299      -21.23503
C         18.68238      101.36822      -21.82376
C         19.56775      100.73739      -20.76885
O         19.20894       99.69208      -20.24170
C         18.53153      100.44098      -23.04851
C         19.82196      100.19742      -23.79185
O         20.98091      100.75885      -23.39332
O         19.81450       99.48974      -24.78578
H         16.54293      101.18512      -21.62020
H         19.11724      102.32848      -22.18192
H         17.82135      100.91341      -23.76159
H         18.10545       99.46512      -22.72769
N         20.71679      101.35585      -20.37826
C         21.54115      100.88551      -19.27342
C         21.51808      101.93927      -18.17675
O         21.10661      103.06517      -18.43025
C         22.96308      100.58530      -19.79924
C         23.90817       99.95077      -18.76044
C         25.29136       99.60268      -19.33573
C         26.11084      100.84982      -19.71059
N         27.43516      100.47752      -20.20565
H         20.99411      102.23173      -20.84933
H         21.10829       99.95109      -18.85263
H         23.39283      101.52875      -20.19297
H         22.86651       99.86682      -20.64374
H         23.43995       99.00831      -18.39991
H         24.06348      100.62600      -17.89609
H         25.17513       98.93568      -20.21776
H         25.85395       99.04563      -18.55442
H         26.22643      101.49409      -18.81010
H         25.59206      101.43633      -20.49683
H         27.97125      101.34670      -20.43094
H         27.95651       99.93858      -19.47659
H         27.34322       99.90204      -21.07411
N         21.88554      101.62224      -16.90822
C         21.84035      102.56180      -15.79649
C         23.24882      102.72532      -15.25587
O         23.95992      101.73497      -15.16850
C         20.83159      102.03369      -14.76022
C         20.49257      103.06474      -13.72053
O         21.43033      103.52113      -12.87910
O         19.35350      103.49576      -13.63561
H         22.17559      100.65303      -16.70317
H         21.46265      103.55436      -16.12965
H         21.19872      101.09909      -14.28388
H         19.88809      101.79250      -15.30075
N         23.75453      103.95335      -14.94731
C         25.14989      104.15519      -14.57960
C         25.59671      103.39625      -13.34448
O         26.78841      103.14601      -13.23262
H         23.14760      104.78288      -15.02782
H         25.36709      105.23551      -14.43867
H         25.76957      103.80698      -15.43474
N         24.72549      103.02874      -12.36182
C         25.11626      102.22587      -11.20481
C         24.19620      101.01667      -11.06057
O         23.88807      100.61822       -9.94920
C         25.21414      103.11840       -9.94157
C         23.94174      103.82235       -9.53908
N         23.96271      104.73565       -8.54084
O         22.89373      103.58476      -10.11345
H         23.74827      103.32562      -12.43676
H         26.13818      101.81758      -11.36071
H         25.97108      103.90289      -10.15906
H         25.57899      102.52322       -9.07674
H         24.84017      104.95767       -8.04848
H         23.10485      105.23904       -8.27235
N         23.73868      100.36863      -12.16993
C         22.90102       99.17892      -12.16499
C         21.49798       99.34951      -11.60958
O         20.78428       98.35630      -11.59865
H         24.03888      100.70885      -13.08647
H         23.42331       98.37684      -11.60206
H         22.78089       98.83491      -13.21627
N         21.02287      100.52951      -11.11447
C         19.69706      100.64891      -10.51692
C         19.62383      101.98124       -9.72148
O         19.14923      103.01702      -10.53794
C         18.58577      100.52455      -11.60012
C         17.18194      100.81833      -11.10684
C         16.54777       99.99434      -10.16267
C         16.48831      101.93669      -11.60967
C         15.24555      100.28602       -9.73247
C         15.19506      102.22979      -11.17303
C         14.56725      101.40401      -10.23293
O         13.31712      101.67544       -9.80521
H         21.63688      101.35368      -11.09730
H         19.60092       99.81814       -9.78370
H         18.59964       99.51847      -12.06690
H         18.83430      101.24628      -12.40293
H         17.05650       99.12629       -9.76460
H         16.94981      102.59143      -12.33815
H         14.76207       99.64436       -9.00689
H         14.68270      103.09891      -11.56778
H         12.81818      102.44089      -10.12649
N         18.76577      101.84383       -8.54239
C         18.99831      102.89396       -7.53711
C         20.45583      102.90163       -7.05322
O         21.09268      103.93823       -7.15570
C         17.95227      102.72183       -6.39765
C         16.50178      102.61572       -6.96077
C         18.04977      103.84939       -5.35825
C         16.04111      103.80285       -7.81690
H         18.91632      100.91859       -8.07837
H         18.80396      103.88461       -8.00347
H         18.15389      101.76468       -5.86603
H         15.78903      102.48530       -6.11852
H         16.42194      101.70289       -7.58749
H         19.04863      103.84833       -4.87652
H         17.88373      104.84234       -5.82427
H         17.28932      103.69617       -4.56197
H         16.67598      103.91536       -8.71937
H         15.00399      103.62269       -8.16925
H         16.05021      104.74655       -7.23625
N         21.07200      101.77904       -6.58151
C         22.49301      101.75078       -6.22441
C         22.79257      102.55662       -4.97729
O         23.85375      103.16020       -4.90139
C         22.98193      100.30592       -5.98619
O         22.71107       99.45602       -7.07203
H         20.53747      100.89941       -6.53975
H         23.09259      102.14557       -7.07759
H         22.47177       99.88779       -5.09411
H         24.07921      100.31098       -5.79236
H         22.79242       99.98052       -7.90672
N         21.90365      102.57788       -3.94321
C         22.12005      103.24398       -2.66487
C         22.56121      104.68987       -2.83801
O         23.50239      105.11453       -2.17982
C         23.11109      102.43271       -1.81523
H         21.00029      102.09553       -4.06393
H         21.14752      103.24139       -2.12441
H         24.11096      102.39972       -2.29860
H         23.21505      102.88135       -0.80421
H         22.74313      101.39131       -1.69564
N         21.96093      105.48787       -3.76401
C         22.38033      106.85889       -4.01866
C         21.17354      107.76566       -4.03667
O         20.27443      107.54265       -4.83626
C         23.12393      106.93177       -5.35100
H         21.22283      105.08488       -4.36181
H         23.09931      107.20629       -3.24428
H         22.48386      106.59047       -6.18441
H         23.45294      107.97528       -5.54595
H         24.02451      106.28208       -5.31153
N         21.09029      108.81776       -3.17445
C         19.96770      109.74598       -3.12048
C         18.69433      108.99515       -2.77126
O         17.71541      109.07282       -3.50217
C         19.84039      110.56061       -4.43328
C         21.13023      111.32244       -4.77179
C         20.96368      112.13184       -6.02612
O         21.11178      113.46983       -5.98998
O         20.70441      111.58212       -7.08522
H         21.86057      108.97365       -2.50641
H         20.16036      110.47086       -2.29795
H         19.01188      111.29432       -4.31669
H         19.58514      109.88983       -5.28124
H         21.96807      110.60791       -4.92295
H         21.38996      111.99985       -3.92989
N         18.65885      108.22155       -1.65052
C         17.50088      107.45110       -1.24519
H         16.63887      107.58603       -1.93178
H         17.76714      106.37337       -1.22643
H         17.19074      107.76348       -0.22663
H         19.50070      108.15907       -1.05806
Ca        20.51608      104.82262      -10.41861
O         17.89173      106.08982      -10.13584
H         17.06115      105.73184      -10.53798
H         17.62574      106.95462       -9.73465
O         21.01746      108.06716      -11.01557
H         21.02776      108.67215      -11.79857
H         21.25850      108.64781      -10.25084
O         20.61404      106.81466       -8.41170
H         20.69950      106.36631       -7.53729
H         19.84247      107.42219       -8.29825
O         19.31503      106.56369      -13.14232
H         18.39466      106.92736      -13.10952
H         19.52430      106.50195      -14.10816
O         22.89196      106.08458      -12.40039
H         23.85333      106.31691      -12.36032
H         22.57102      106.49310      -13.24337

Ca 1.0



