%chk=apoCaM-CA-Ng.loop2.water3.frame43.chk
%nprocshared=20
%mem=10GB
%nosave
#b3lyp/svp scf=(tight,noincore,xqc) Test 
#IOP(5/87=12) Density=Current Pop=(MK,readradii) iop(6/33=2) iop(6/42=6)

apoCaM-CA-Ng.loop2.water3.frame43 

   -2  1 
C         67.63068       38.41824       65.67332
C         68.97651       38.76595       66.24073
O         69.74306       39.46303       65.59221
H         66.83532       38.82510       66.33329
H         67.50308       38.84374       64.65540
H         67.52141       37.31441       65.61645
N         69.32396       38.30637       67.47326
C         70.59606       38.60300       68.12227
C         71.78042       38.08817       67.32471
O         72.73307       38.83554       67.18001
C         70.62588       38.00527       69.54236
C         71.90078       38.35835       70.26418
O         72.22790       39.64915       70.47046
O         72.64773       37.47729       70.65824
H         68.63507       37.72939       67.98173
H         70.68950       39.70780       68.23759
H         70.51459       36.90023       69.48793
H         69.77498       38.41567       70.12822
N         71.81435       36.82188       66.81126
C         72.97292       36.26300       66.11027
C         73.36958       37.04906       64.85583
O         74.49651       36.90444       64.40370
C         74.15249       36.12753       67.08614
H         70.98887       36.21584       66.93402
H         72.72970       35.22676       65.78570
H         74.51007       37.11531       67.44006
H         73.84181       35.52307       67.96505
H         75.00052       35.60424       66.59510
N         72.47969       37.86285       64.21563
C         72.76580       38.65988       63.02159
C         73.78258       39.76831       63.31991
O         74.58583       40.10572       62.46106
C         73.16655       37.73960       61.83439
C         73.13067       38.39591       60.47736
O         73.42735       37.74207       59.49018
O         72.74918       39.67809       60.32558
H         71.51951       37.92110       64.58083
H         71.80856       39.16340       62.75715
H         72.46253       36.88295       61.79352
H         74.18376       37.32823       62.00239
N         73.80499       40.37416       64.54450
C         74.74102       41.42628       64.91439
C         74.32312       42.79644       64.41357
O         75.08989       43.73396       64.57856
H         73.15757       40.05033       65.26611
H         75.75661       41.15619       64.54881
H         74.79865       41.49464       66.02192
N         73.12682       42.99275       63.79284
C         72.72324       44.26106       63.19076
C         72.48920       45.36742       64.21007
O         71.63312       45.24026       65.07430
C         71.46223       44.04255       62.33871
C         71.76657       43.03560       61.25855
N         72.67309       43.30059       60.28991
O         71.21325       41.95313       61.28042
H         72.49553       42.18659       63.68100
H         73.53013       44.58020       62.49752
H         71.12661       44.98877       61.86454
H         70.64117       43.66904       62.99380
H         73.15809       44.20775       60.25235
H         72.89334       42.59325       59.57395
N         73.22519       46.51094       64.12233
C         73.08585       47.67499       64.98222
C         71.79273       48.42813       64.75741
O         71.42094       48.63934       63.61088
H         73.95123       46.56891       63.39209
H         73.88977       48.38725       64.69515
H         73.24658       47.41151       66.04922
N         71.12256       48.98249       65.81206
C         69.96579       49.86508       65.63193
C         68.70250       49.11200       65.21962
O         67.69959       49.76144       64.96013
C         69.70720       50.74299       66.89247
C         69.22249       49.97075       68.12960
O         70.84548       51.51405       67.19533
H         71.52064       48.85467       66.75351
H         70.21822       50.58738       64.82267
H         68.89518       51.46261       66.64643
H         71.49749       50.93918       67.67378
H         69.06249       50.67872       68.97050
H         68.25100       49.48842       67.91569
H         69.95546       49.20169       68.44784
N         68.67184       47.74934       65.15368
C         67.49131       46.97093       64.78697
C         67.77239       46.17258       63.52066
O         68.86690       46.25406       62.98103
C         67.07087       46.03542       65.97269
C         68.19168       45.02787       66.35567
C         66.62409       46.87569       67.17915
C         67.75774       43.98535       67.38596
H         69.52339       47.22016       65.37434
H         66.62963       47.63597       64.55696
H         66.17978       45.45465       65.65733
H         69.07710       45.56134       66.76040
H         68.50481       44.47038       65.44760
H         67.47904       47.43948       67.59415
H         65.82526       47.58681       66.87755
H         66.20178       46.23825       67.98139
H         67.49694       44.45531       68.35533
H         66.88937       43.40752       67.00545
H         68.59837       43.28311       67.56991
N         66.82080       45.33348       63.02286
C         67.04540       44.42086       61.91179
C         65.94532       44.53896       60.84445
O         65.94862       43.74030       59.91807
C         67.16913       43.01356       62.53326
C         67.42194       41.90530       61.51862
O         67.58609       40.67896       62.17316
O         68.56317       42.12487       60.74557
H         65.91772       45.25664       63.51278
H         68.01759       44.62550       61.41190
H         66.24455       42.76776       63.09591
H         68.01309       43.02361       63.25970
N         65.01514       45.54298       60.85999
C         64.00049       45.70918       59.81740
C         62.93661       44.61486       59.89922
O         62.27817       44.53517       60.92818
C         63.28751       47.07314       59.97650
C         62.20183       47.25252       58.93736
C         62.52043       47.38689       57.57464
C         60.85183       47.25622       59.32949
C         61.50265       47.52145       56.62373
C         59.83903       47.38123       58.37572
C         60.16342       47.51483       57.02391
H         65.06408       46.25831       61.59976
H         64.50966       45.72655       58.83154
H         64.01482       47.91089       59.90357
H         62.84208       47.11111       60.99544
H         63.55301       47.38696       57.24884
H         60.58165       47.14274       60.37194
H         61.75084       47.62598       55.57544
H         58.80220       47.36957       58.68595
H         59.37631       47.61115       56.28733
N         62.65510       43.77129       58.85702
C         61.55151       42.81821       58.86568
C         61.72353       41.78002       59.95217
O         60.76411       41.49551       60.65546
C         61.54217       42.25816       57.43537
C         62.98220       42.38619       56.99308
C         63.38300       43.72925       57.60158
H         60.56686       43.31446       59.02334
H         61.07287       41.25803       57.31343
H         60.97820       42.97925       56.80066
H         63.55909       41.57717       57.48348
H         63.15889       42.30173       55.89992
H         64.48598       43.73314       57.72327
H         63.05110       44.58505       56.97450
N         62.93567       41.22325       60.19091
C         63.18706       40.26437       61.25691
C         62.86118       40.89653       62.59936
O         62.06982       40.33348       63.34304
C         64.65796       39.82585       61.21188
C         65.01126       39.10076       59.89887
C         66.47818       38.80927       59.82132
O         67.14960       39.28661       58.92012
O         67.06066       38.01885       60.74070
H         63.72925       41.54205       59.62178
H         62.55987       39.35675       61.11257
H         64.88891       39.15820       62.07104
H         65.26008       40.74018       61.29824
H         64.74374       39.72151       59.01918
H         64.44295       38.15004       59.83116
N         63.40720       42.09218       62.95802
C         63.08984       42.74063       64.21240
H         61.99610       42.92754       64.27707
H         63.40734       42.10177       65.06324
H         63.61790       43.71601       64.28064
H         64.04678       42.57371       62.30934
Ca        69.39737       40.01651       60.99290
O         69.82086       38.34472       58.16430
H         69.52108       38.78989       57.33213
H         70.79896       38.24173       58.05394
O         70.10791       41.60967       58.20025
H         69.98472       42.12661       57.36520
H         71.08889       41.56811       58.32352
O         69.98220       37.20354       61.34501
H         70.24453       36.76154       60.49888
H         69.18657       36.70448       61.65443

Ca 1.0



