%chk=apoCaM-CA-Ng.loop2.water4.frame388.chk
%nprocshared=20
%mem=10GB
%nosave
#b3lyp/svp scf=(tight,noincore,xqc) Test 
#IOP(5/87=12) Density=Current Pop=(MK,readradii) iop(6/33=2) iop(6/42=6)

apoCaM-CA-Ng.loop2.water4.frame388 

   -2  1 
C          9.79964       62.58124       21.51361
C          9.05428       61.43555       20.89319
O          8.47133       61.62470       19.83516
H         10.58918       62.93069       20.81557
H          9.09728       63.41787       21.71406
H         10.27811       62.28499       22.46968
N          9.03018       60.21171       21.49655
C          8.32092       59.06226       20.94834
C          7.27526       58.62011       21.94723
O          7.63636       58.23680       23.05238
C          9.32388       57.93428       20.64974
C          8.68045       56.77177       19.94139
O          7.68904       56.07376       20.52803
O          9.06367       56.44945       18.82821
H          9.53548       60.08767       22.38788
H          7.82770       59.33842       19.99008
H          9.79528       57.58073       21.59312
H         10.12808       58.34495       20.00056
N          5.95019       58.70204       21.64356
C          4.90822       58.40486       22.61568
C          4.40463       59.69823       23.21577
O          4.83375       60.76528       22.79819
C          3.77356       57.61896       21.94358
H          5.67036       59.10170       20.73386
H          5.31466       57.79438       23.45151
H          2.97409       57.36869       22.67245
H          3.32070       58.21784       21.12316
H          4.16141       56.66931       21.51926
N          3.47920       59.67431       24.21140
C          2.92580       60.87673       24.81276
C          1.50147       60.98248       24.34414
O          0.57819       60.91478       25.14517
C          3.03773       60.81336       26.35022
C          4.46015       60.73230       26.80551
O          4.87641       59.68715       27.54569
O          5.23943       61.62492       26.52333
H          3.11030       58.76466       24.52864
H          3.45146       61.79525       24.46534
H          2.48204       59.93035       26.73373
H          2.58826       61.73122       26.78898
N          1.26025       61.14341       23.01245
C         -0.07217       61.17393       22.45421
C         -0.39428       62.53512       21.91226
O         -0.74901       62.64947       20.74766
H          2.05511       61.24228       22.36180
H         -0.83716       60.94694       23.22683
H         -0.15661       60.39134       21.66912
N         -0.37605       63.61216       22.74704
C         -0.93753       64.90185       22.36839
C         -0.20085       65.60280       21.23137
O         -0.79967       66.47495       20.61721
C         -1.00551       65.83264       23.59731
C         -1.89757       67.01965       23.34224
N         -1.40516       68.27833       23.34765
O         -3.08675       66.83677       23.12650
H         -0.07162       63.46675       23.72301
H         -1.97802       64.68260       22.03781
H          0.02796       66.14504       23.87030
H         -1.43230       65.28707       24.46753
H         -0.40466       68.45533       23.51546
H         -2.02941       69.07874       23.16877
N          1.09893       65.32638       20.91730
C          1.81476       66.02260       19.85134
C          1.97283       67.51274       20.10779
O          1.53248       68.00082       21.14090
H          1.60702       64.60064       21.44491
H          1.27714       65.86924       18.89178
H          2.83262       65.58573       19.75471
N          2.63911       68.29499       19.20336
C          2.87275       69.72785       19.40677
C          4.25874       69.99280       19.96892
O          4.47584       71.07266       20.49781
C          2.63346       70.55856       18.12067
C          3.67082       70.28661       17.01337
O          1.32724       70.36866       17.63966
H          3.05117       67.83270       18.37934
H          2.16002       70.09018       20.18180
H          2.73742       71.63403       18.38592
H          1.28162       69.46210       17.23780
H          3.64982       69.22956       16.67919
H          3.47219       70.93821       16.13794
H          4.69038       70.52088       17.37585
N          5.22813       69.03505       19.92900
C          6.49992       69.14297       20.62889
C          6.45669       68.12765       21.75538
O          5.56801       67.28695       21.78643
C          7.68155       68.96383       19.61754
C          7.77975       70.15989       18.62984
C          9.05203       68.70544       20.26906
C          8.17385       71.50165       19.26777
H          5.04214       68.14217       19.45223
H          6.58273       70.12232       21.14096
H          7.46468       68.05253       19.01596
H          6.81172       70.28920       18.11071
H          8.53947       69.92287       17.85324
H          9.35822       69.53618       20.93505
H          9.03162       67.76229       20.85290
H          9.82617       68.57525       19.48229
H          7.43561       71.83193       20.02472
H          9.17726       71.44458       19.73757
H          8.22146       72.28382       18.48163
N          7.33114       68.23416       22.78981
C          7.25429       67.40275       23.97786
C          6.98659       68.27889       25.21480
O          7.03322       67.77325       26.32804
C          8.55996       66.59165       24.05320
C          8.47475       65.40006       24.96561
O          7.33125       65.09580       25.60993
O          9.43848       64.65988       25.07317
H          8.05593       68.96570       22.76540
H          6.42025       66.67363       23.88603
H          9.40348       67.25827       24.33106
H          8.77130       66.17153       23.04470
N          6.64808       69.60009       25.08476
C          6.38629       70.50857       26.19853
C          7.66175       70.76528       26.98682
O          8.66227       71.09041       26.36024
C          5.83753       71.85269       25.64931
C          5.59046       72.87114       26.73919
C          6.63855       73.70298       27.17356
C          4.32501       72.99565       27.33699
C          6.42728       74.63569       28.19104
C          4.11890       73.92902       28.35947
C          5.16909       74.74727       28.78605
H          6.53820       69.99548       24.13982
H          5.58669       70.07760       26.83581
H          4.88352       71.64474       25.11520
H          6.52663       72.29427       24.89535
H          7.62064       73.62894       26.72387
H          3.50402       72.36423       27.02163
H          7.24087       75.26992       28.51884
H          3.14554       74.01700       28.82409
H          5.00896       75.46812       29.57729
N          7.70546       70.73791       28.35900
C          8.88210       71.12053       29.12938
C         10.10075       70.26231       28.87186
O         11.19919       70.68183       29.20719
C          8.43875       70.94540       30.58460
C          6.96524       71.26995       30.49886
C          6.56210       70.53132       29.22569
H          9.09337       72.18584       28.88141
H          8.50093       69.86697       30.86353
H          9.02544       71.53649       31.31939
H          6.36627       71.00370       31.39495
H          6.87332       72.36572       30.31622
H          6.44130       69.43943       29.39842
H          5.61982       70.98357       28.85765
N          9.97295       69.01840       28.33430
C         11.10910       68.15321       28.05978
C         11.97564       68.78025       26.98967
O         13.16829       68.93717       27.21023
C         10.63935       66.76359       27.60074
C          9.86876       66.01257       28.70192
C          9.49630       64.65046       28.21154
O         10.36365       63.85900       27.87675
O          8.20518       64.30639       28.08491
H          9.02885       68.66889       28.11749
H         11.70770       68.00144       28.98657
H         11.53658       66.16319       27.33140
H         10.00080       66.86513       26.69944
H          8.94465       66.56561       28.97459
H         10.49712       65.90568       29.61160
N         11.42606       69.18777       25.81047
C         12.18673       69.80346       24.74321
H         13.27384       69.84084       24.96541
H         12.03951       69.22417       23.80821
H         11.82372       70.84073       24.58503
H         10.41069       69.08245       25.66606
Ca         7.82042       62.43648       26.90305
O          7.38378       61.97179       23.85088
H          6.51731       62.45055       23.87019
H          7.15814       61.03603       24.08257
O          8.06467       59.50323       26.17134
H          8.14177       58.52273       26.27483
H          7.42811       59.77493       26.87778
O          8.29837       61.12861       29.44024
H          8.93717       60.64632       28.85698
H          8.86440       61.73999       29.97473
O         10.33672       61.53257       25.41699
H         11.05065       62.01454       24.92951
H         10.33455       60.62482       25.02200

Ca 1.0



