%chk=apoCaM-CA-Ng.loop4.water3.frame258.chk
%nprocshared=20
%mem=10GB
%nosave
#b3lyp/svp scf=(tight,noincore,xqc) Test 
#IOP(5/87=12) Density=Current Pop=(MK,readradii) iop(6/33=2) iop(6/42=6)

apoCaM-CA-Ng.loop4.water3.frame258 

   -3  1 
C         33.86976       56.80042        9.68832
C         33.59865       58.00060       10.59256
O         32.80022       57.59132       11.66193
H         34.40360       56.01294       10.26064
H         32.91357       56.38677        9.30293
H         34.50881       57.10036        8.83117
N         32.96792       59.10561        9.84354
C         32.97532       60.39958       10.56463
C         34.27697       60.64759       11.32984
O         34.26669       60.68976       12.54470
C         31.61471       60.68672       11.26123
C         31.09598       59.69918       12.26551
O         31.68843       59.55934       13.45868
O         30.07786       59.06697       12.02854
H         33.52727       59.24422        8.96944
H         32.97552       61.21361        9.80259
H         30.85933       60.72737       10.44429
H         31.63751       61.69293       11.73285
N         35.42715       60.84787       10.60780
C         36.80166       61.11847       11.06357
C         36.91956       62.42500       11.85548
O         37.47449       63.37585       11.32200
C         37.48449       59.89395       11.74315
C         39.00736       60.12060       11.99545
C         37.29475       58.61747       10.90221
C         39.86999       60.36382       10.74825
H         35.31948       60.82067        9.58161
H         37.36975       61.28030       10.12166
H         36.99886       59.71213       12.72693
H         39.41214       59.22803       12.52049
H         39.15752       60.99338       12.65223
H         37.70530       58.73700        9.87852
H         37.79319       57.75289       11.39081
H         36.22202       58.37333       10.80622
H         40.93024       60.48222       11.05668
H         39.82038       59.51217       10.04099
H         39.57504       61.29710       10.22761
N         36.40688       62.56324       13.11128
C         36.36193       63.83629       13.82346
C         37.70345       64.25585       14.42149
O         38.08851       65.39051       14.17775
C         35.25169       63.83658       14.90605
C         33.85969       63.66908       14.34146
O         32.80443       63.68493       15.17712
O         33.66816       63.53796       13.14203
H         35.96038       61.75797       13.56063
H         36.03765       64.63464       13.11526
H         35.26909       64.81585       15.43220
H         35.41428       63.04441       15.65814
N         38.46605       63.48056       15.25142
C         38.23540       62.06823       15.50131
C         39.23333       61.48910       16.49446
O         40.41492       61.76114       16.33538
H         39.29976       63.91970       15.67341
H         38.37030       61.53273       14.55183
H         37.20887       61.89584       15.80335
N         38.89842       60.61883       17.50176
C         37.57521       60.05180       17.75369
C         37.09169       59.34864       16.47909
O         36.08104       59.74867       15.92013
C         36.64241       61.11599       18.38559
C         35.32191       60.54051       18.81030
O         35.27765       59.50669       19.67281
O         34.28168       61.03103       18.40432
H         39.66767       60.25969       18.08941
H         37.66516       59.28449       18.55209
H         36.46559       61.98929       17.73557
H         37.14232       61.49876       19.30147
N         37.79990       58.32532       15.90353
C         38.92743       57.65402       16.53798
C         40.27105       58.11121       16.03206
O         40.35869       58.87301       15.07927
H         37.49119       57.97044       14.98635
H         38.81687       56.55246       16.44511
H         38.92953       57.85142       17.62318
N         41.37895       57.73524       16.73233
C         42.71723       58.25567       16.47627
C         43.36548       57.62625       15.24272
O         44.45152       58.05403       14.88317
C         43.56152       58.07413       17.76943
C         44.95072       58.73445       17.74232
C         45.62169       58.65239       19.09339
N         46.03364       59.77369       19.73309
O         45.80725       57.56076       19.61087
H         41.23265       57.14633       17.56851
H         42.63021       59.35352       16.31376
H         43.66686       56.99140       18.00454
H         42.98847       58.55189       18.59714
H         44.84562       59.80017       17.44380
H         45.60197       58.21944       17.00989
H         45.90483       60.70497       19.31107
H         46.49846       59.71178       20.65153
N         42.76580       56.61708       14.53923
C         43.37903       55.98098       13.37077
C         43.66962       54.50408       13.61455
O         44.28344       53.89522       12.74626
C         42.50444       56.17880       12.10205
C         42.36946       57.66806       11.75800
C         41.11327       55.53935       12.23462
H         41.84826       56.26897       14.84260
H         44.36931       56.44298       13.16212
H         43.02157       55.68923       11.24617
H         43.37398       58.11626       11.60178
H         41.78757       57.79242       10.82012
H         41.85394       58.22019       12.57192
H         40.54888       55.65346       11.28517
H         41.20358       54.45397       12.45017
H         40.52323       56.02007       13.04099
N         43.29686       53.86490       14.76317
C         43.64471       52.48345       15.06267
C         42.41906       51.59015       15.21908
O         42.36072       50.59593       14.50849
C         44.63108       52.40258       16.25907
C         44.27680       53.07184       17.57325
N         45.14348       52.99120       18.60804
O         43.24411       53.70211       17.71895
H         42.77032       54.37884       15.47814
H         44.22384       52.04152       14.21850
H         45.58291       52.87354       15.92875
H         44.84092       51.32785       16.45538
H         46.02897       52.47307       18.51392
H         44.92795       53.44804       19.50671
N         41.42372       51.83566       16.12549
C         40.34143       50.88388       16.38024
C         38.97186       51.48864       16.13155
O         38.85393       52.69843       16.00679
C         40.41266       50.43489       17.85385
C         41.76751       49.88453       18.23294
C         42.25453       48.70339       17.65064
C         42.55625       50.55497       19.18483
C         43.50770       48.20066       18.01850
C         43.80869       50.05375       19.54691
C         44.28864       48.87563       18.96895
O         45.49664       48.40241       19.33585
H         41.44477       52.69020       16.69064
H         40.44440       49.99796       15.71730
H         39.63539       49.67106       18.07069
H         40.19107       51.32439       18.48626
H         41.66266       48.16940       16.91835
H         42.20620       51.47034       19.64597
H         43.86980       47.28618       17.56645
H         44.40586       50.58255       20.27950
H         45.86377       47.58609       18.96819
N         37.87892       50.66624       16.06398
C         36.48421       51.09649       15.93878
C         36.15832       51.88822       14.67331
O         35.00541       52.27567       14.53521
C         36.04572       51.89584       17.18785
C         36.19739       51.08146       18.48130
C         35.68497       51.85424       19.66265
O         36.51120       52.15910       20.68098
O         34.51446       52.19910       19.71178
H         38.03775       49.65002       16.14251
H         35.84796       50.18284       15.90318
H         34.97052       52.16091       17.07693
H         36.62498       52.84050       17.26893
H         37.26741       50.83018       18.64310
H         35.62002       50.13455       18.40206
N         37.08513       52.17903       13.71512
C         36.80517       53.03594       12.56773
C         37.00322       52.32314       11.24283
O         36.76225       52.95156       10.22044
C         37.73720       54.26350       12.64314
C         37.46051       55.13934       13.87337
C         36.10230       55.75385       13.77350
O         35.17030       55.51325       14.71420
O         35.83333       56.45654       12.81488
H         38.04562       51.82515       13.80291
H         35.74769       53.38204       12.57204
H         37.62454       54.89735       11.73526
H         38.78792       53.90851       12.67945
H         38.21163       55.95448       13.91408
H         37.54293       54.54940       14.80894
N         37.42629       51.02874       11.16336
C         37.62343       50.33939        9.90470
H         38.68563       50.02960        9.82193
H         36.97739       49.43809        9.87629
H         37.37661       50.97322        9.02677
H         37.62861       50.49169       12.01717
Ca        33.93280       58.12351       13.58979
O         34.30151       57.32437       16.84379
H         34.40782       58.11885       17.42276
H         34.96600       56.67852       17.19191
O         31.73807       56.12202       14.35684
H         32.22573       55.38214       13.91486
H         31.17233       56.50825       13.64179
O         32.84565       60.54222       15.69638
H         33.12109       59.94773       16.43618
H         33.68576       60.95952       15.38197

Ca 1.0



