%chk=apoCaM-CA-Ng.loop2.water4.frame1432.chk
%nprocshared=20
%mem=10GB
%nosave
#b3lyp/svp scf=(tight,noincore,xqc) Test 
#IOP(5/87=12) Density=Current Pop=(MK,readradii) iop(6/33=2) iop(6/42=6)

apoCaM-CA-Ng.loop2.water4.frame1432 

   -2  1 
C         78.61252       85.23115       23.26843
C         78.10960       84.63698       21.97603
O         78.92994       84.03650       21.29673
H         79.44373       85.92908       23.03249
H         77.88330       85.80197       23.86195
H         79.00805       84.41746       23.91086
N         76.82957       84.73876       21.50402
C         75.69360       85.39218       22.16178
C         75.25038       86.65607       21.43248
O         74.37032       87.32670       21.95512
C         74.51370       84.39635       22.34895
C         73.94932       83.83777       21.06583
O         74.46827       84.22428       19.89180
O         73.04342       83.02118       21.09397
H         76.66943       84.31438       20.58022
H         75.96556       85.72504       23.17424
H         73.69176       84.90093       22.90250
H         74.87075       83.54480       22.96670
N         75.81759       87.07059       20.25698
C         75.47563       88.33809       19.61813
C         74.84327       88.17435       18.24045
O         74.49517       89.19607       17.66377
C         76.74648       89.19265       19.52210
H         76.54925       86.50037       19.80906
H         74.74143       88.89994       20.23542
H         76.52238       90.18990       19.08702
H         77.17849       89.34682       20.53445
H         77.50703       88.68851       18.88682
N         74.65692       86.95749       17.64064
C         74.06473       86.81256       16.30732
C         72.81468       85.93324       16.32206
O         72.43508       85.41010       17.35976
C         75.13690       86.29751       15.31392
C         75.69346       84.94580       15.67198
O         74.88662       83.87017       15.73298
O         76.87451       84.82789       15.95738
H         74.97016       86.10339       18.12041
H         73.73771       87.80337       15.92419
H         75.96685       87.03916       15.29894
H         74.72096       86.24842       14.28670
N         72.10268       85.76947       15.17138
C         70.90135       84.95616       15.03391
C         71.17627       83.46547       15.02818
O         72.28748       83.04370       15.31166
H         72.40780       86.28752       14.33403
H         70.47650       85.18040       14.03182
H         70.13752       85.23038       15.79288
N         70.19815       82.60936       14.60585
C         70.41769       81.18143       14.39652
C         70.70211       80.95246       12.92752
O         69.84956       81.24312       12.09880
C         69.18098       80.35996       14.80897
C         68.86497       80.48422       16.27391
N         67.68705       81.01049       16.68317
O         69.67294       80.08914       17.10050
H         69.30734       83.01467       14.27868
H         71.29299       80.83353       14.98831
H         69.35474       79.28472       14.58258
H         68.30932       80.69440       14.20353
H         66.99070       81.34500       16.00087
H         67.46888       81.08559       17.68737
N         71.91361       80.47021       12.53474
C         72.29453       80.28854       11.14402
C         73.38117       81.27276       10.77810
O         73.75095       82.08577       11.61477
H         72.62821       80.26452       13.25008
H         71.43727       80.46205       10.45913
H         72.64842       79.24458       11.00645
N         73.95588       81.30881        9.54585
C         73.67143       80.39921        8.44131
C         74.92689       79.61830        8.05762
O         74.90213       78.94772        7.03623
C         73.11137       81.20778        7.24353
C         71.73712       81.80114        7.56916
O         73.98911       82.24711        6.88701
H         74.67055       82.03620        9.37859
H         72.90501       79.63992        8.70245
H         72.94401       80.52194        6.37808
H         74.52432       81.93310        6.11299
H         71.79557       82.50050        8.42933
H         71.34392       82.35201        6.68851
H         71.02046       80.98764        7.81608
N         76.04716       79.63101        8.84482
C         77.28919       78.92813        8.53840
C         77.58132       77.92450        9.66232
O         77.67604       78.36298       10.80031
C         78.43674       79.97669        8.41509
C         78.13733       80.95108        7.24285
C         79.79747       79.28160        8.22189
C         79.13718       82.10215        7.11901
H         76.04419       80.17026        9.72205
H         77.22462       78.41669        7.56112
H         78.48385       80.56073        9.36202
H         77.14063       81.41686        7.39608
H         78.10977       80.38857        6.28361
H         80.02147       78.60664        9.07383
H         79.80189       78.68826        7.28360
H         80.62529       80.01706        8.19570
H         80.15742       81.73791        6.88667
H         78.82536       82.76875        6.28735
H         79.15791       82.69393        8.05848
N         77.80084       76.58407        9.46374
C         77.74180       75.90817        8.16775
C         78.37557       74.51650        8.17955
O         78.61201       73.94563        9.23534
C         76.27285       75.77650        7.68580
C         75.41722       74.99373        8.65166
O         75.22187       75.44398        9.90688
O         74.87558       73.96007        8.29459
H         78.06940       76.03320       10.29381
H         78.35707       76.49701        7.45453
H         76.25225       75.28735        6.68786
H         75.79970       76.76139        7.57296
N         78.67192       73.91848        6.98773
C         79.17837       72.55833        6.84022
C         80.55165       72.55342        6.16853
O         80.66503       73.15811        5.10914
C         78.21738       71.77561        5.91782
C         78.66766       70.34124        5.78692
C         79.33556       69.90251        4.62987
C         78.45777       69.44195        6.84393
C         79.79697       68.58595        4.54169
C         78.90702       68.12259        6.74511
C         79.58085       67.69618        5.59743
H         78.50475       74.45553        6.12182
H         79.20386       72.04251        7.81818
H         78.21672       72.26920        4.91911
H         77.17019       71.80319        6.28883
H         79.52372       70.58449        3.80957
H         77.94668       69.76550        7.74217
H         80.32770       68.25718        3.65749
H         78.73912       67.43361        7.56217
H         79.93822       66.67729        5.52778
N         81.61359       71.81313        6.62688
C         81.65968       70.99965        7.83706
C         81.48541       71.82823        9.08349
O         80.66820       71.49239        9.92813
C         83.07041       70.38773        7.81717
C         83.33354       70.27255        6.33507
C         82.81613       71.61959        5.84043
H         80.90613       70.18781        7.76420
H         83.82233       71.11472        8.20055
H         83.16991       69.44911        8.40354
H         84.38565       70.05017        6.05785
H         82.67494       69.46783        5.93302
H         83.53008       72.44236        6.06625
H         82.62506       71.55204        4.74712
N         82.21872       72.96393        9.23051
C         82.12081       73.84402       10.38134
C         82.82043       73.18286       11.56114
O         84.01176       72.92697       11.45122
C         82.79089       75.19947       10.05806
C         82.10165       75.91115        8.87246
C         82.79915       77.18300        8.47406
O         82.38384       77.82081        7.52072
O         83.89327       77.61663        9.13034
H         82.85531       73.22672        8.46277
H         81.05124       74.05897       10.58518
H         83.86053       75.02368        9.80459
H         82.74225       75.86065       10.95104
H         81.04562       76.13694        9.13718
H         82.09805       75.25510        7.97741
N         82.18983       72.85301       12.72288
C         80.78584       73.08343       12.97607
H         80.16753       72.52761       12.24231
H         80.52539       72.71815       13.99228
H         80.56015       74.16846       12.92131
H         82.74242       72.40471       13.47076
Ca        74.24281       83.40512       17.82626
O         71.22217       82.37488       18.60346
H         71.07442       82.21834       17.63810
H         70.36762       82.75802       18.92407
O         73.41481       80.27263       16.86278
H         73.42058       79.66759       16.07915
H         72.77993       79.85219       17.49577
O         74.39543       80.74972       19.79250
H         75.07252       80.75781       20.51483
H         73.73501       80.06887       20.07590
O         76.52667       81.52011       17.75471
H         77.21840       82.11634       17.37257
H         76.89023       80.60655       17.64132

Ca 1.0



