%chk=apoCaM-CA-Ng.loop4.water2.frame448.chk
%nprocshared=20
%mem=10GB
%nosave
#b3lyp/svp scf=(tight,noincore,xqc) Test 
#IOP(5/87=12) Density=Current Pop=(MK,readradii) iop(6/33=2) iop(6/42=6)

apoCaM-CA-Ng.loop4.water2.frame448 

   -3  1 
C         70.02650       66.01607       66.82485
C         68.95748       65.15369       66.22484
O         69.26906       64.04043       65.85281
H         70.83842       66.16987       66.08383
H         69.62896       67.00314       67.13712
H         70.44760       65.50428       67.71739
N         67.66854       65.58761       66.13270
C         66.54654       64.79392       65.63508
C         66.33815       63.50745       66.41981
O         66.98402       62.52236       66.13516
C         66.46878       64.64691       64.08492
C         67.70649       64.42244       63.22136
O         68.51046       63.33425       63.24701
O         67.95966       65.27108       62.37999
H         67.44900       66.52665       66.49868
H         65.63317       65.38957       65.86463
H         66.06500       65.62369       63.72946
H         65.69095       63.89423       63.83244
N         65.44719       63.47786       67.45788
C         65.09675       62.32587       68.29627
C         64.15928       61.37330       67.55961
O         63.00285       61.28189       67.94905
C         66.32647       61.59465       68.91907
C         65.90670       60.49671       69.93662
C         67.32605       62.57660       69.55424
C         65.20595       61.00899       71.20186
H         64.98474       64.36521       67.70993
H         64.50358       62.75293       69.13388
H         66.87212       61.07194       68.10826
H         66.81654       59.94696       70.25676
H         65.23735       59.76356       69.43790
H         66.85176       63.17871       70.35485
H         68.18790       62.01793       69.97729
H         67.72981       63.27454       68.79235
H         64.96077       60.14813       71.85814
H         65.86699       61.68993       71.77598
H         64.25725       61.52997       70.96439
N         64.56999       60.64793       66.48129
C         63.67527       59.80076       65.70345
C         63.13440       58.61758       66.52946
O         61.92223       58.58589       66.68980
C         64.32784       59.41103       64.35927
C         64.68705       60.61916       63.53463
O         63.82344       61.40034       63.16961
O         65.97129       60.83971       63.19069
H         65.53977       60.73287       66.16406
H         62.79563       60.42078       65.40957
H         63.62763       58.77722       63.77264
H         65.26865       58.87588       64.52410
N         63.87837       57.63507       67.14088
C         65.32375       57.47846       67.10205
C         65.79666       56.87219       65.78866
O         64.95007       56.53537       64.97143
H         63.36891       56.96113       67.73435
H         65.63905       56.77565       67.90309
H         65.76349       58.45858       67.33808
N         67.11463       56.68770       65.46169
C         68.26844       56.91671       66.33487
C         68.32106       58.32189       66.90909
O         67.73161       59.22109       66.32750
C         69.58473       56.57744       65.58391
C         69.79861       57.43259       64.36038
O         69.95690       58.76476       64.47622
O         69.85262       56.91660       63.25572
H         67.30109       56.30625       64.52068
H         68.14090       56.21601       67.18767
H         69.54306       55.50872       65.28062
H         70.47478       56.70197       66.23036
N         68.92470       58.59446       68.10420
C         69.71541       57.65061       68.88209
C         68.97395       57.14393       70.08329
O         67.81676       57.48664       70.28120
H         68.80193       59.53522       68.50447
H         70.66436       58.14383       69.18306
H         69.98811       56.75051       68.31046
N         69.60293       56.27651       70.92461
C         68.95642       55.67423       72.08195
C         69.48265       56.25008       73.38879
O         68.93165       55.90418       74.42616
C         68.99564       54.12933       71.98293
C         70.38712       53.47230       71.89828
C         71.22726       53.71420       73.11783
N         70.79336       53.32804       74.33897
O         72.31485       54.25549       73.00213
H         70.59083       56.04612       70.73845
H         67.87745       55.94385       72.08674
H         68.44787       53.83921       71.05938
H         68.43226       53.69872       72.83798
H         70.91908       53.82494       70.99015
H         70.25005       52.37469       71.79164
H         69.88430       52.86064       74.45651
H         71.36172       53.50000       75.17545
N         70.45570       57.21196       73.41605
C         70.77829       57.98996       74.60936
C         72.24248       57.90261       75.03184
O         72.57524       58.53245       76.02432
C         70.35206       59.47522       74.38874
C         68.83185       59.58354       74.18268
C         71.08456       60.14951       73.21232
H         70.91943       57.48631       72.53979
H         70.19812       57.61796       75.48338
H         70.59533       60.04559       75.31235
H         68.53067       60.64876       74.08935
H         68.51041       59.04739       73.26404
H         68.29557       59.15061       75.05417
H         70.79243       61.21915       73.14848
H         72.18410       60.10126       73.35435
H         70.82553       59.67835       72.24115
N         73.16354       57.13746       74.37256
C         74.55888       57.03682       74.80609
C         75.53800       57.41658       73.70864
O         76.73333       57.29730       73.96430
C         74.87900       55.59477       75.26033
C         74.03607       55.11994       76.41455
N         74.01510       55.78619       77.59207
O         73.38506       54.09619       76.29430
H         72.87443       56.58360       73.55856
H         74.76191       57.71209       75.66394
H         75.93801       55.54760       75.59777
H         74.76392       54.89957       74.39886
H         74.56756       56.64398       77.72881
H         73.44210       55.43781       78.37513
N         75.16087       57.87698       72.47980
C         76.15464       58.10149       71.43227
C         75.65448       58.95135       70.28682
O         74.47416       58.89571       69.98259
C         76.68189       56.73393       70.90273
C         75.59431       55.81926       70.34093
C         75.26055       54.62496       71.00764
C         74.91335       56.12699       69.14698
C         74.26534       53.77804       70.50192
C         73.91600       55.28607       68.64731
C         73.58701       54.10973       69.32096
O         72.62586       53.30648       68.82094
H         74.16496       58.06450       72.28469
H         76.99180       58.68411       71.87993
H         77.17773       56.21694       71.74984
H         77.46509       56.89045       70.13031
H         75.76631       54.34726       71.92316
H         75.14985       57.01109       68.58559
H         74.02103       52.86467       71.02922
H         73.40199       55.54859       67.73012
H         72.36985       52.47793       69.25035
N         76.56730       59.64888       69.53705
C         76.36015       60.36329       68.27302
C         75.56609       61.66737       68.37833
O         76.09455       62.70470       68.00064
C         75.77427       59.41076       67.20697
C         75.83025       59.93351       65.75906
C         77.23206       59.97815       65.19683
O         77.52971       59.26018       64.25504
O         78.15932       60.81414       65.70024
H         77.55179       59.59456       69.84601
H         77.37515       60.64787       67.93178
H         74.71400       59.20275       67.46298
H         76.32996       58.44802       67.22551
H         75.34897       60.93036       65.67540
H         75.24381       59.22174       65.13728
N         74.28242       61.68705       68.82943
C         73.40382       62.85228       68.82916
C         73.90831       63.99783       69.70642
O         73.29077       65.05366       69.66737
C         71.98119       62.45396       69.32733
C         71.30947       61.24238       68.63533
C         70.96931       61.44241       67.18955
O         71.83537       61.69481       66.36834
O         69.69384       61.26981       66.79320
H         73.88335       60.81270       69.13529
H         73.33773       63.22066       67.78277
H         71.29817       63.32889       69.25479
H         72.07170       62.18342       70.40350
H         70.37001       61.03717       69.18687
H         71.91466       60.32194       68.72187
N         74.99157       63.87507       70.53109
C         75.47940       64.95120       71.37212
H         76.52923       65.18554       71.09746
H         74.87809       65.87920       71.27283
H         75.45043       64.62921       72.43415
H         75.50230       62.98482       70.59418
Ca        68.95742       61.67919       64.70362
O         71.49749       63.10310       63.29908
H         71.22168       63.69323       64.04458
H         71.85624       62.29423       63.74265
O         68.91053       60.39718       61.84969
H         68.49443       61.16654       61.38555
H         69.55356       60.02884       61.19330

Ca 1.0



