%chk=apoCaM-CA-Ng.loop1.water6.frame666.chk
%nprocshared=20
%mem=10GB
%nosave
#b3lyp/svp scf=(tight,noincore,xqc) Test 
#IOP(5/87=12) Density=Current Pop=(MK,readradii) iop(6/33=2) iop(6/42=6)

apoCaM-CA-Ng.loop1.water6.frame666 

   0  1 
C          0.43489       25.27873       -9.28886
C         -0.02456       24.63472      -10.56242
O          0.00564       25.29440      -11.59200
H          1.49194       25.60075       -9.39911
H         -0.19410       26.16954       -9.07804
H          0.36322       24.57934       -8.43043
N         -0.45817       23.33980      -10.58041
C         -0.90018       22.69070      -11.81294
C         -2.11925       23.38557      -12.39993
O         -2.75234       24.17829      -11.71439
C         -1.15001       21.18126      -11.59913
C         -2.20475       20.89152      -10.56477
O         -3.35419       21.26106      -10.73267
O         -1.88419       20.20677       -9.45008
H         -0.44329       22.80101       -9.70098
H         -0.06888       22.78670      -12.54697
H         -0.19548       20.71704      -11.26762
H         -1.44283       20.70400      -12.55908
N         -2.44154       23.19776      -13.71166
C         -3.48901       23.95775      -14.38108
C         -4.31237       23.02350      -15.25406
O         -4.35930       23.20035      -16.46339
C         -2.79503       25.08821      -15.16662
C         -3.75610       26.15949      -15.69854
C         -2.95300       27.26050      -16.40245
C         -3.85163       28.40497      -16.87938
N         -3.05779       29.43879      -17.54386
H         -1.83296       22.59434      -14.28694
H         -4.15911       24.43576      -13.63244
H         -2.18462       24.65459      -15.98996
H         -2.10037       25.60337      -14.46597
H         -4.31123       26.59983      -14.84042
H         -4.48894       25.72201      -16.40827
H         -2.41886       26.82137      -17.27394
H         -2.19962       27.67476      -15.69598
H         -4.37611       28.85115      -16.00555
H         -4.61554       28.01358      -17.58665
H         -3.68757       30.21746      -17.84300
H         -2.33832       29.81968      -16.88646
H         -2.58527       29.04078      -18.38805
N         -4.94252       21.95582      -14.69182
C         -5.69321       20.96296      -15.45791
C         -7.06624       20.70395      -14.83506
O         -7.11462       20.15283      -13.74678
C         -4.90177       19.62983      -15.59182
C         -4.45256       18.97556      -14.30129
O         -3.99270       17.84518      -14.32641
O         -4.45308       19.66470      -13.14463
H         -4.84316       21.83677      -13.67726
H         -5.82513       21.31637      -16.49819
H         -3.99785       19.78889      -16.21832
H         -5.55993       18.91623      -16.13628
N         -8.24797       21.02038      -15.44256
C         -8.38535       21.79813      -16.65904
C         -7.92564       23.20486      -16.39041
O         -7.04440       23.69657      -17.07942
H         -9.12359       20.73423      -14.97627
H         -9.46125       21.85084      -16.93417
H         -7.84616       21.31966      -17.50485
N         -8.48659       23.90064      -15.36095
C         -8.06696       25.23548      -14.95518
C         -7.52690       25.20974      -13.53401
O         -7.58737       24.17805      -12.87800
C         -9.24759       26.21881      -15.10437
C        -10.45166       25.82852      -14.28355
O        -10.37323       25.76654      -12.94030
O        -11.51049       25.57321      -14.83492
H         -9.23426       23.44444      -14.81423
H         -7.23946       25.59244      -15.60684
H         -9.53596       26.24910      -16.17823
H         -8.93369       27.24301      -14.81269
N         -6.95725       26.32424      -13.00080
C         -6.41373       26.35034      -11.65201
C         -5.77006       27.68652      -11.37632
O         -6.45719       28.69706      -11.43088
H         -6.88934       27.16993      -13.58863
H         -5.65463       25.54522      -11.55616
H         -7.22198       26.16273      -10.91260
N         -4.43270       27.76406      -11.12349
C         -3.71018       29.02595      -10.98851
C         -2.96141       29.11405       -9.66702
O         -2.95525       28.16112       -8.89912
C         -2.73223       29.17977      -12.19089
C         -1.66109       28.08065      -12.25902
O         -3.45629       29.16686      -13.39342
H         -3.89119       26.88766      -11.08664
H         -4.41674       29.88382      -11.02039
H         -2.18043       30.14369      -12.11024
H         -3.81641       30.08272      -13.52448
H         -2.11483       27.08060      -12.41316
H         -0.98253       28.27311      -13.11668
H         -1.05077       28.06363      -11.33154
N         -2.25063       30.24215       -9.37463
C         -1.35366       30.34725       -8.22631
C         -2.13339       30.55597       -6.92789
O         -1.58573       30.27392       -5.87149
C         -0.28706       31.47536       -8.45919
C          0.47513       31.24770       -9.80213
C          0.72320       31.54959       -7.29288
C          1.40809       32.39885      -10.18853
H         -2.28641       31.02023      -10.04817
H         -0.79313       29.38659       -8.15818
H         -0.82631       32.44682       -8.52360
H         -0.23737       31.16377      -10.64512
H          1.05125       30.29806       -9.76070
H          0.22473       31.77977       -6.33273
H          1.27481       30.58915       -7.19748
H          1.45406       32.36775       -7.43791
H          1.85163       32.19273      -11.18565
H          0.83629       33.34977      -10.24971
H          2.24472       32.51482       -9.47300
N         -3.40028       31.07020       -6.92174
C         -4.15962       31.32654       -5.69537
C         -4.46974       32.81894       -5.58393
O         -4.13151       33.56741       -6.49189
C         -5.44797       30.46106       -5.70754
C         -5.11343       28.97139       -5.83974
O         -6.17283       30.64270       -4.51946
H         -3.85251       31.31001       -7.81691
H         -3.56149       31.05109       -4.79920
H         -6.06614       30.77503       -6.58200
H         -7.11897       30.41494       -4.71480
H         -6.04962       28.37480       -5.83913
H         -4.57944       28.76813       -6.79000
H         -4.47897       28.64270       -4.98869
N         -5.10942       33.32349       -4.48585
C         -5.45270       34.73202       -4.32790
C         -4.79369       35.28520       -3.07103
O         -3.99971       36.20882       -3.18491
C         -6.99835       34.93143       -4.40916
C         -7.84042       34.23094       -3.33460
O         -7.44278       34.46538       -5.65848
H         -5.37085       32.68700       -3.72257
H         -5.05219       35.32188       -5.18338
H         -7.22979       36.01955       -4.31948
H         -7.29603       35.19647       -6.31379
H         -7.64808       33.13721       -3.32242
H         -7.67314       34.66863       -2.33246
H         -8.91861       34.38408       -3.55219
N         -5.07226       34.76936       -1.84000
C         -4.48882       35.24980       -0.59535
C         -4.03256       34.05762        0.22354
O         -4.85757       33.20868        0.53627
C         -5.54742       36.06454        0.17238
C         -5.03099       36.55606        1.53492
C         -6.08637       37.40034        2.25488
C         -5.61173       37.77769        3.66429
N         -6.61789       38.58028        4.35777
H         -5.74889       34.00011       -1.76479
H         -3.63337       35.93398       -0.79351
H         -6.45698       35.44416        0.33111
H         -5.83021       36.94208       -0.45121
H         -4.10636       37.15937        1.39782
H         -4.79036       35.67464        2.16785
H         -7.02876       36.81667        2.34208
H         -6.28854       38.32071        1.66359
H         -4.66018       38.35103        3.60281
H         -5.42367       36.84766        4.24693
H         -6.77299       39.47944        3.84680
H         -7.51803       38.05143        4.42413
H         -6.27926       38.79215        5.32401
N         -2.73622       33.93371        0.62055
C         -2.27344       32.82292        1.44210
C         -1.75738       31.67577        0.57848
O         -2.30262       30.59002        0.72029
C         -1.27330       33.28273        2.52383
C         -1.89723       34.29954        3.49249
C         -0.91841       34.67850        4.56751
O         -0.56466       35.83955        4.69634
O         -0.43330       33.73885        5.40235
H         -2.06262       34.66511        0.35120
H         -3.13309       32.40892        2.02005
H         -0.37314       33.73745        2.07377
H         -0.95925       32.38763        3.10596
H         -2.79696       33.86131        3.97591
H         -2.20603       35.20907        2.93208
N         -0.75252       31.76888       -0.34298
C         -0.03134       32.97227       -0.69436
H          0.71466       32.73779       -1.48277
H         -0.71999       33.72868       -1.11694
H          0.52570       33.37345        0.16972
H         -0.49523       30.91217       -0.85806
Ca        -5.77385       19.31657      -11.34907
O         -7.57932       17.11694      -12.24686
H         -6.98965       16.86994      -13.00300
H         -7.16712       16.68143      -11.45870
O         -7.49118       18.38390       -8.98166
H         -8.40111       18.11588       -9.26511
H         -7.62864       19.20880       -8.45155
O         -4.77717       19.73436       -7.98957
H         -4.86347       20.57407       -8.50681
H         -5.05976       19.97916       -7.07274
O         -4.17696       17.14617      -10.71641
H         -3.38459       17.73849      -10.66894
H         -4.09469       16.54824       -9.93296
O         -5.82577       22.77256      -10.95542
H         -5.41835       23.08022      -11.80270
H         -5.28257       23.20981      -10.25304
O         -8.56507       20.90848      -10.91518
H         -9.08882       21.39587      -11.59973
H         -9.07690       21.03003      -10.07625

Ca 1.0



