%chk=apoCaM-CA-Ng.loop2.water2.frame850.chk
%nprocshared=20
%mem=10GB
%nosave
#b3lyp/svp scf=(tight,noincore,xqc) Test 
#IOP(5/87=12) Density=Current Pop=(MK,readradii) iop(6/33=2) iop(6/42=6)

apoCaM-CA-Ng.loop2.water2.frame850 

   -2  1 
C         68.14303       45.76414       88.16459
C         66.96137       45.58144       87.26306
O         66.67008       44.45711       86.87998
H         68.87908       46.44385       87.68895
H         67.80247       46.20577       89.12550
H         68.63031       44.78869       88.37687
N         66.20954       46.65980       86.90832
C         64.99643       46.56307       86.11170
C         63.84263       46.97323       87.00680
O         63.13437       47.92687       86.71465
C         65.14989       47.42344       84.83602
C         64.00114       47.29767       83.86506
O         62.95377       46.48740       84.11725
O         64.02812       47.92902       82.82085
H         66.48212       47.59080       87.26169
H         64.81847       45.51299       85.78981
H         66.06882       47.09870       84.30061
H         65.27421       48.49104       85.12125
N         63.62249       46.27020       88.15533
C         62.55876       46.58123       89.10012
C         62.77280       47.96349       89.71491
O         63.80920       48.15609       90.33590
C         62.52936       45.53552       90.22210
H         64.23825       45.46619       88.35489
H         61.60121       46.49541       88.55626
H         63.49184       45.52896       90.77869
H         61.70654       45.75595       90.93436
H         62.36340       44.52453       89.79310
N         61.88855       48.99993       89.58630
C         60.64029       48.92490       88.83039
C         60.14083       50.29703       88.39306
O         60.69619       51.30701       88.79908
C         59.56133       48.11356       89.59079
C         59.04307       48.75374       90.85551
O         57.85641       49.01753       90.93265
O         59.82555       48.96137       91.93671
H         62.17337       49.90255       89.99700
H         60.86814       48.42476       87.86673
H         59.93596       47.10876       89.86021
H         58.70356       47.96107       88.90068
N         59.14295       50.39173       87.46609
C         58.71152       51.65347       86.88346
C         57.20399       51.78381       86.85215
O         56.66260       51.79365       85.75563
H         58.74060       49.52465       87.07863
H         59.07015       51.65711       85.83025
H         59.16462       52.53600       87.37998
N         56.41989       51.90600       87.96133
C         56.90077       51.95667       89.33401
C         57.24033       53.39646       89.69195
O         56.34481       54.22916       89.73107
C         55.79985       51.36438       90.24649
C         56.13196       51.26137       91.70924
N         55.21500       50.74803       92.56068
O         57.21794       51.61957       92.13217
H         55.40228       51.99655       87.80701
H         57.79500       51.31179       89.43552
H         55.57245       50.33578       89.88802
H         54.87668       51.97532       90.14708
H         54.29770       50.43141       92.21491
H         55.41437       50.66253       93.56523
N         58.53503       53.76969       89.90675
C         58.94341       55.14791       90.13528
C         58.82743       55.59943       91.57672
O         59.12243       56.75795       91.83332
H         59.27612       53.06932       89.78650
H         58.37020       55.82159       89.46093
H         60.01529       55.25128       89.86122
N         58.43636       54.75588       92.57358
C         58.31904       55.15109       93.97541
C         59.23441       54.30098       94.84915
O         59.90866       53.41868       94.33586
C         56.84016       55.02023       94.41670
C         55.93039       55.94041       93.60068
O         56.39373       53.69858       94.26171
H         58.20372       53.78505       92.34034
H         58.62749       56.21002       94.11691
H         56.72755       55.34030       95.47864
H         56.59844       53.22937       95.10931
H         54.88210       55.83907       93.95278
H         56.24548       56.99820       93.72439
H         55.96271       55.67633       92.52210
N         59.29538       54.51356       96.19645
C         60.10897       53.71441       97.10905
C         59.15437       52.94105       98.00364
O         58.31169       53.54049       98.65755
C         61.10454       54.61551       97.89233
C         61.97804       53.82467       98.90790
C         61.99742       55.40915       96.91760
C         62.88799       52.74703       98.30086
H         58.71582       55.26141       96.60714
H         60.71704       52.98594       96.53395
H         60.51875       55.35744       98.47934
H         61.32002       53.34240       99.66058
H         62.62356       54.54717       99.45430
H         62.69891       56.06224       97.47900
H         62.58335       54.73155       96.26205
H         61.38142       56.06226       96.26479
H         63.47969       52.26989       99.10942
H         62.29845       51.95269       97.80149
H         63.60709       53.18280       97.57819
N         59.20279       51.58105       98.01316
C         58.21726       50.70763       98.63531
C         58.82691       49.86473       99.75160
O         58.17800       48.94163      100.22218
C         57.62011       49.83019       97.51098
C         56.89407       50.68981       96.50896
O         55.95016       51.36462       96.89066
O         57.23004       50.74019       95.19945
H         59.95800       51.11488       97.49593
H         57.38669       51.28550       99.10105
H         56.88086       49.11926       97.93927
H         58.42244       49.24765       97.00966
N         60.02509       50.20681      100.30132
C         60.64827       49.53886      101.43703
C         62.12492       49.34385      101.12595
O         62.77045       50.34563      100.84880
C         60.51433       50.47210      102.66554
C         61.36186       50.03015      103.83931
C         62.45483       50.82348      104.23218
C         61.10138       48.83485      104.53013
C         63.28107       50.42296      105.28267
C         61.93265       48.43696      105.58509
C         63.02287       49.22914      105.95790
H         60.49665       51.05487       99.95864
H         60.14796       48.57740      101.67960
H         59.44852       50.56031      102.97026
H         60.84551       51.48703      102.35308
H         62.67938       51.74701      103.71306
H         60.26479       48.20794      104.24806
H         64.12532       51.03772      105.56683
H         61.73704       47.51184      106.11155
H         63.66933       48.91960      106.76880
N         62.77151       48.13908      101.22555
C         64.21667       48.03344      101.14557
C         64.68524       47.75709       99.72086
O         65.42288       46.80242       99.51001
C         64.50191       46.87835      102.11514
C         63.35181       45.93336      101.79034
C         62.17446       46.90535      101.70356
H         64.72373       48.95447      101.50953
H         65.52187       46.44264      102.05403
H         64.34730       47.24828      103.15611
H         63.53803       45.50423      100.78153
H         63.20282       45.09563      102.50458
H         61.36622       46.51676      101.04785
H         61.78315       47.07741      102.72336
N         64.31636       48.56536       98.68359
C         64.84427       48.36801       97.33892
C         66.30982       48.77203       97.26822
O         66.95597       48.43455       96.28587
C         64.07459       49.19439       96.29087
C         62.59782       48.79712       96.17967
C         61.93571       49.60739       95.10451
O         60.93301       50.44406       95.41364
O         62.31131       49.52198       93.94618
H         63.65419       49.33333       98.84765
H         64.73794       47.29110       97.07459
H         64.54874       49.03190       95.29710
H         64.14910       50.27643       96.54318
H         62.08144       48.97522       97.14745
H         62.50569       47.71880       95.92503
N         66.88359       49.55002       98.23463
C         68.25756       50.00328       98.18544
H         68.80300       49.61263       97.30168
H         68.27283       51.11321       98.14460
H         68.78480       49.67098       99.10322
H         66.32569       49.87898       99.03550
Ca        58.77755       49.84122       93.77631
O         58.51204       47.11279       94.66107
H         57.62846       47.33254       94.27090
H         58.32028       46.90665       95.60985
O         60.81496       51.95722       91.97979
H         61.13857       52.45552       91.18893
H         61.56443       52.01187       92.62404

Ca 1.0



