%chk=apoCaM-CA-Ng.loop4.water5.frame607.chk
%nprocshared=20
%mem=10GB
%nosave
#b3lyp/svp scf=(tight,noincore,xqc) Test 
#IOP(5/87=12) Density=Current Pop=(MK,readradii) iop(6/33=2) iop(6/42=6)

apoCaM-CA-Ng.loop4.water5.frame607 

   -3  1 
C         63.99148       45.90460       -9.77165
C         64.06416       47.19315       -9.00249
O         65.10796       47.49277       -8.44215
H         62.99119       45.76551      -10.23572
H         64.75309       45.90509      -10.57850
H         64.17870       45.05029       -9.08807
N         62.97452       48.00717       -8.93428
C         62.91511       49.27223       -8.21160
C         63.86874       50.29261       -8.80199
O         64.63663       50.91511       -8.07918
C         63.09661       49.08076       -6.68904
C         62.03780       48.18038       -6.12046
O         61.15997       48.66600       -5.22441
O         61.96378       47.01179       -6.46527
H         62.11520       47.71817       -9.42673
H         61.89736       49.69628       -8.36731
H         63.00936       50.07340       -6.19506
H         64.09951       48.66935       -6.44750
N         63.83779       50.53386      -10.14152
C         64.61689       51.59946      -10.76979
C         64.03520       52.95848      -10.36911
O         62.89516       52.98291       -9.92393
C         64.62617       51.45161      -12.32813
C         63.19374       51.54089      -12.94011
C         65.34120       50.14433      -12.71981
C         63.16522       51.52824      -14.46768
H         63.22936       49.93455      -10.71371
H         65.65940       51.50399      -10.39455
H         65.22614       52.28524      -12.74758
H         62.72027       52.49299      -12.62107
H         62.55074       50.70802      -12.59161
H         66.36506       50.13103      -12.29050
H         64.79062       49.25415      -12.34983
H         65.45377       50.05921      -13.81874
H         63.76007       52.37342      -14.87157
H         63.54885       50.57052      -14.87279
H         62.11392       51.63656      -14.81114
N         64.69498       54.14866      -10.49072
C         66.09326       54.32762      -10.85982
C         66.87094       54.89947       -9.67803
O         67.90250       54.34396       -9.33532
C         66.27599       55.14983      -12.16646
C         65.74238       56.56065      -12.26614
O         65.95208       57.19312      -13.28874
O         65.02322       57.13828      -11.29162
H         64.16474       54.99363      -10.23338
H         66.56840       53.35527      -11.10024
H         65.81136       54.58088      -12.99951
H         67.36988       55.19751      -12.36660
N         66.42500       55.97855       -8.97507
C         67.15251       56.59115       -7.88138
C         68.43014       57.22108       -8.37575
O         68.38669       57.97764       -9.33620
H         65.51532       56.39485       -9.19239
H         67.33570       55.85248       -7.06989
H         66.52472       57.40576       -7.46031
N         69.60500       56.99593       -7.72662
C         70.86050       57.62750       -8.12465
C         71.49809       56.99412       -9.35876
O         72.54522       57.47883       -9.76784
C         71.86381       57.67283       -6.94185
C         72.26276       56.35517       -6.32461
O         71.75738       55.30202       -6.67297
O         73.17317       56.34881       -5.33336
H         69.57410       56.43109       -6.86551
H         70.65670       58.69637       -8.36232
H         71.42356       58.29220       -6.13160
H         72.78631       58.18827       -7.28852
N         70.95316       55.92582      -10.01454
C         71.60689       55.31156      -11.16062
C         72.88454       54.57637      -10.78461
O         73.58560       54.14420      -11.68830
H         70.05240       55.53628       -9.71499
H         71.81945       56.10245      -11.91392
H         70.92569       54.57146      -11.63527
N         73.22746       54.34920       -9.47775
C         74.42816       53.64797       -9.03716
C         74.47277       52.17599       -9.44246
O         75.48773       51.54962       -9.17310
C         75.70581       54.47606       -9.37536
C         75.95750       55.50941       -8.25207
C         77.18414       56.35814       -8.46244
N         77.18710       57.35680       -9.37331
O         78.17132       56.17524       -7.76445
H         72.60007       54.67121       -8.74105
H         74.40520       53.55964       -7.92841
H         75.63660       54.94505      -10.38079
H         76.60107       53.81820       -9.37707
H         76.11400       54.92476       -7.31662
H         75.08147       56.17320       -8.09275
H         76.34796       57.55759       -9.93530
H         78.01782       57.95811       -9.48371
N         73.39614       51.52341       -9.98187
C         73.40011       50.08648      -10.27771
C         72.26751       49.32487       -9.58799
O         72.15826       48.13147       -9.84283
C         73.30824       49.85054      -11.81033
C         71.98813       50.35742      -12.41719
C         74.50683       50.47160      -12.53433
H         72.53558       52.04775      -10.18621
H         74.34949       49.61804       -9.93675
H         73.35918       48.75253      -11.98907
H         71.12092       49.86498      -11.93068
H         71.88414       51.45610      -12.30626
H         71.94807       50.10649      -13.49730
H         75.45367       50.06365      -12.11966
H         74.46619       50.22113      -13.61517
H         74.51126       51.57563      -12.42243
N         71.37593       49.91187       -8.73785
C         70.18040       49.21725       -8.25508
C         70.29095       48.87291       -6.78438
O         71.29538       49.19643       -6.16227
C         68.94705       50.08992       -8.57065
C         68.83268       50.32216      -10.05844
N         68.99208       51.55948      -10.58154
O         68.61120       49.37650      -10.80000
H         71.50749       50.89423       -8.45080
H         70.05459       48.23989       -8.77098
H         69.05255       51.05951       -8.03548
H         68.00523       49.61507       -8.22283
H         69.21166       52.36067       -9.97565
H         68.92283       51.71368      -11.59836
N         69.29375       48.16902       -6.17174
C         69.34957       47.72998       -4.78044
C         69.10610       46.22576       -4.68318
O         68.62020       45.64135       -5.64486
C         68.28583       48.53104       -4.00348
C         68.27537       48.29170       -2.51689
C         67.11195       47.82490       -1.88619
C         69.41482       48.56336       -1.74236
C         67.08731       47.62927       -0.50342
C         69.39086       48.36385       -0.35981
C         68.22870       47.89950        0.26522
O         68.21838       47.72425        1.60157
H         68.44567       47.93916       -6.71489
H         70.35577       47.94623       -4.36378
H         67.28584       48.30908       -4.44115
H         68.48159       49.61411       -4.16060
H         66.22141       47.62431       -2.46405
H         70.31982       48.93304       -2.20711
H         66.17968       47.27453       -0.03146
H         70.27546       48.57760        0.22622
H         67.43088       47.41813        2.07344
N         69.43235       45.52682       -3.55236
C         69.13258       44.10790       -3.37961
C         68.31580       43.91265       -2.10409
O         68.89128       44.00995       -1.02839
C         70.41017       43.24700       -3.31152
C         71.18365       43.23444       -4.63814
C         72.41399       42.36629       -4.57442
O         72.75455       41.71639       -3.44281
O         73.11520       42.24495       -5.56565
H         69.90294       46.01847       -2.77814
H         68.57165       43.74245       -4.25290
H         70.11461       42.19677       -3.08575
H         71.06628       43.61446       -2.49181
H         71.48957       44.26751       -4.90584
H         70.52026       42.83752       -5.43833
N         66.96901       43.68028       -2.10194
C         66.14565       43.73743       -3.30262
C         66.39253       42.59395       -4.26585
O         67.04389       41.61661       -3.92278
C         64.64612       43.79085       -2.96539
C         64.25951       45.06995       -2.21345
C         62.77742       45.24484       -2.30102
O         62.01799       44.43398       -1.79542
O         62.29709       46.23925       -3.07061
H         66.50272       43.58018       -1.18624
H         66.40090       44.68313       -3.83151
H         64.31686       42.88734       -2.40430
H         64.10008       43.80893       -3.93074
H         64.71420       45.93169       -2.74209
H         64.61949       45.07136       -1.16170
N         65.91695       42.70127       -5.53835
C         66.13432       41.69226       -6.54673
H         67.22345       41.53726       -6.69716
H         65.65183       40.74134       -6.24168
H         65.68985       42.02841       -7.50888
H         65.40365       43.55253       -5.81523
Ca        60.18907       46.22221       -3.85086
O         61.90355       43.97031       -5.65397
H         62.80013       44.28928       -5.92762
H         62.06692       43.08096       -5.25035
O         60.84770       48.77721       -2.30344
H         60.05298       49.23830       -2.67255
H         60.47752       48.11650       -1.66566
O         58.45770       45.26878       -1.77799
H         58.31526       45.96406       -1.08840
H         59.37690       44.94138       -1.61052
O         58.75781       43.71089       -4.86817
H         57.77088       43.78021       -4.90348
H         58.99743       43.16318       -5.65729
O         57.55707       46.97119       -4.78159
H         56.97833       46.23564       -4.45881
H         56.94456       47.73873       -4.90298

Ca 1.0



