%chk=apoCaM-CA-Ng.loop3.water6.frame1124.chk
%nprocshared=20
%mem=10GB
%nosave
#b3lyp/svp scf=(tight,noincore,xqc) Test 
#IOP(5/87=12) Density=Current Pop=(MK,readradii) iop(6/33=2) iop(6/42=6)

apoCaM-CA-Ng.loop3.water6.frame1124 

   0  1 
C         62.02851       85.80224       74.55830
C         62.05581       86.06884       76.03561
O         60.99692       86.13374       76.63757
H         63.05284       85.77943       74.12977
H         61.55294       84.81478       74.37338
H         61.44237       86.58988       74.04294
N         63.24104       86.19122       76.69408
C         63.35183       86.35520       78.14153
C         64.21282       87.54817       78.54995
O         64.48039       87.67148       79.73788
C         63.83925       85.03727       78.79051
C         65.16016       84.49082       78.31828
O         65.63945       83.36633       78.88173
O         65.79293       85.02502       77.42408
H         64.10644       86.10026       76.14392
H         62.35209       86.52974       78.59724
H         63.07270       84.25454       78.60397
H         63.89400       85.18674       79.89143
N         64.61606       88.50987       77.66256
C         65.37192       89.70251       78.05414
C         64.60061       90.47594       79.12184
O         65.11239       90.69277       80.21224
C         66.80961       89.32466       78.49811
C         67.58666       88.63657       77.36036
C         69.04377       88.29037       77.72586
C         69.22062       87.27892       78.87632
N         68.58670       85.99459       78.58679
H         64.33943       88.43630       76.67305
H         65.46792       90.37078       77.16860
H         66.76806       88.66054       79.38467
H         67.35526       90.25139       78.78317
H         67.61741       89.33061       76.49183
H         67.05685       87.71861       77.03117
H         69.58043       89.22537       77.99534
H         69.53245       87.87056       76.81944
H         68.81398       87.68755       79.82579
H         70.31039       87.11362       79.02393
H         67.55441       86.12211       78.57602
H         68.92153       85.61366       77.67145
H         68.81759       85.31282       79.34472
N         63.32256       90.88008       78.86599
C         62.44722       91.51231       79.85563
C         61.24743       90.61546       80.16506
O         60.22336       91.10355       80.62229
C         62.03849       92.93355       79.40593
C         61.24976       93.01344       78.12603
O         60.91965       91.91163       77.42928
O         60.91120       94.10694       77.70372
H         62.93515       90.67147       77.93489
H         62.98410       91.65086       80.81981
H         62.96406       93.53529       79.27677
H         61.43674       93.40751       80.21216
N         61.36154       89.26480       80.03243
C         60.33587       88.28876       80.35611
C         60.79328       87.45579       81.53728
O         61.74289       87.85627       82.19743
H         62.25362       88.87477       79.71326
H         60.20785       87.65454       79.45437
H         59.35847       88.75460       80.60523
N         60.21699       86.27433       81.89720
C         59.16905       85.56711       81.17212
C         59.75501       84.25616       80.67130
O         60.35591       83.54460       81.46605
C         57.96691       85.26377       82.08003
C         57.19295       86.51122       82.41851
N         55.91081       86.65291       82.00308
O         57.72322       87.40177       83.06496
H         60.60976       85.79534       82.72422
H         58.78255       86.16201       80.32558
H         58.29043       84.74264       83.00731
H         57.29109       84.57394       81.52658
H         55.44697       85.91571       81.45077
H         55.37737       87.50554       82.22567
N         59.62381       83.82673       79.38539
C         58.81176       84.51633       78.39023
C         58.76284       83.78569       77.06798
O         59.44551       82.78632       76.89510
H         60.07510       82.93099       79.14623
H         59.18837       85.54272       78.21828
H         57.77119       84.57333       78.77810
N         57.90791       84.21401       76.09343
C         57.72895       83.48181       74.84496
C         57.86550       84.39352       73.63252
O         57.93289       85.60587       73.77470
C         56.35180       82.77878       74.91828
C         56.08095       81.78598       73.81475
C         54.95285       81.92579       72.98939
C         56.94400       80.69321       73.61706
C         54.69733       80.99164       71.97984
C         56.69375       79.76930       72.60054
C         55.56824       79.91483       71.77816
O         55.31612       79.02981       70.79323
H         57.29993       85.02503       76.28482
H         58.51714       82.70629       74.75852
H         55.55331       83.55256       74.96433
H         56.31138       82.20421       75.86981
H         54.26820       82.75309       73.12835
H         57.81511       80.55766       74.24503
H         53.82467       81.10824       71.35011
H         57.37490       78.94036       72.45552
H         55.90056       78.27876       70.61627
N         57.94323       83.83960       72.38860
C         58.05375       84.60582       71.14502
C         56.80978       85.46030       70.92786
O         55.82159       85.25752       71.62292
C         58.31016       83.60426       69.96313
C         57.08483       82.67676       69.71957
C         58.74059       84.29295       68.65694
C         57.40861       81.44677       68.87223
H         57.97362       82.81482       72.33964
H         58.93932       85.27081       71.25385
H         59.17437       82.98281       70.28992
H         56.25314       83.25229       69.25777
H         56.71006       82.28224       70.67840
H         59.60109       84.96879       68.84405
H         59.07034       83.54218       67.91053
H         57.90665       84.86344       68.20200
H         58.19616       80.84330       69.37370
H         56.49843       80.81707       68.77821
H         57.74423       81.72134       67.85389
N         56.78749       86.45146       69.99102
C         55.59339       87.24917       69.74005
C         55.55923       88.48862       70.60875
O         56.54884       88.82395       71.24469
C         55.50096       87.62699       68.24931
O         56.60342       88.41108       67.88118
H         57.64943       86.67101       69.47056
H         54.69439       86.64124       69.98661
H         54.56216       88.19693       68.06615
H         55.48606       86.69911       67.63697
H         56.44647       88.69757       66.94423
N         54.41068       89.22075       70.66252
C         54.24362       90.48207       71.36922
C         55.13544       91.54173       70.75385
O         55.81914       92.26430       71.46523
C         54.42585       90.31551       72.88703
H         53.59267       88.87979       70.13419
H         53.19780       90.81968       71.19727
H         53.70911       89.56143       73.27437
H         55.45036       89.97985       73.13938
H         54.23648       91.27877       73.40685
N         55.17854       91.66293       69.39463
C         55.97207       92.64557       68.67262
C         57.42300       92.61908       69.11732
O         57.95359       93.64366       69.52636
C         55.33398       94.03269       68.80061
H         54.63589       90.99639       68.82394
H         55.94120       92.38320       67.59100
H         55.89673       94.76605       68.18410
H         54.28905       93.99497       68.42436
H         55.32357       94.37385       69.85624
N         58.12369       91.45437       69.06381
C         59.52085       91.33970       69.45481
C         60.32487       90.94143       68.23709
O         61.22729       91.67545       67.85799
C         59.65345       90.34264       70.62658
C         61.07462       90.26351       71.21358
C         61.54542       91.59532       71.73410
O         60.84429       92.23647       72.68727
O         62.55959       92.10664       71.28751
H         57.64000       90.61012       68.72605
H         59.89898       92.32167       69.81366
H         59.33261       89.32792       70.30553
H         58.96780       90.66552       71.43931
H         61.78041       89.88563       70.44316
H         61.07050       89.54325       72.05993
N         60.01592       89.81611       67.53509
C         60.69801       89.46559       66.30963
H         61.77729       89.29924       66.50504
H         60.25704       88.53948       65.88348
H         60.57517       90.28377       65.56665
H         59.24970       89.20552       67.85414
Ca        59.92630       92.16774       75.43033
O         62.98251       91.78409       75.17806
H         63.58284       91.32765       74.53704
H         63.49931       92.56848       75.49105
O         60.27678       89.22948       74.88594
H         59.53638       88.97259       74.28097
H         59.93155       89.04254       75.79500
O         58.09533       94.49078       74.67281
H         57.84420       94.79249       73.76386
H         58.16918       95.32381       75.20250
O         57.65895       92.26365       77.27604
H         56.80620       92.07470       76.81004
H         57.88296       91.41841       77.74083
O         57.77918       91.53028       73.66536
H         57.66733       90.55882       73.81683
H         56.89871       91.92326       73.88723
O         61.54561       94.84163       74.73640
H         62.51428       95.00135       74.86475
H         61.10650       95.61308       75.17517

Ca 1.0



