%chk=apoCaM-CA-Ng.loop3.water2.frame549.chk
%nprocshared=20
%mem=10GB
%nosave
#b3lyp/svp scf=(tight,noincore,xqc) Test 
#IOP(5/87=12) Density=Current Pop=(MK,readradii) iop(6/33=2) iop(6/42=6)

apoCaM-CA-Ng.loop3.water2.frame549 

   0  1 
C         52.07681       13.47064       76.50171
C         51.10480       12.74543       77.38742
O         50.75774       13.25328       78.44421
H         52.97982       12.84705       76.33879
H         51.59696       13.67519       75.51976
H         52.38053       14.44021       76.95068
N         50.58726       11.55320       76.98376
C         49.55256       10.84053       77.72571
C         50.08580       10.30174       79.05054
O         50.97542        9.46266       79.03858
C         48.98390        9.71152       76.83774
C         47.70567        9.11940       77.35108
O         47.14786        8.24114       76.71408
O         47.13890        9.57711       78.47924
H         50.88839       11.18767       76.06610
H         48.72788       11.55858       77.91218
H         49.75039        8.91844       76.69732
H         48.74209       10.13661       75.84272
N         49.60292       10.77504       80.23678
C         50.11282       10.34516       81.54262
C         49.62567        8.94875       81.93416
O         50.24527        8.32455       82.78510
C         49.68540       11.38025       82.60855
C         50.28420       11.14297       84.00396
C         49.82865       12.23888       84.97487
C         50.41135       12.01967       86.37616
N         49.93732       13.04768       87.30222
H         48.89705       11.52723       80.20435
H         51.22458       10.35639       81.49373
H         48.57533       11.39229       82.67743
H         50.02444       12.38232       82.26245
H         51.39430       11.14471       83.93366
H         49.94761       10.16455       84.40420
H         48.71898       12.22568       85.03989
H         50.15302       13.23292       84.59510
H         51.52272       12.05063       86.32657
H         50.10368       11.01946       86.75464
H         50.34907       12.87413       88.24737
H         50.23199       13.99517       86.97155
H         48.89445       13.00923       87.37638
N         48.47529        8.43547       81.41898
C         47.88064        7.15744       81.81715
C         47.76605        6.17968       80.65636
O         47.33790        5.05827       80.89145
C         46.49615        7.39832       82.46852
C         45.67538        8.40195       81.71375
O         45.43047        8.25955       80.40258
O         45.31003        9.42291       82.27515
H         47.96497        9.00237       80.73026
H         48.51263        6.63890       82.57069
H         46.65137        7.80987       83.48915
H         45.93992        6.44194       82.57703
N         48.15278        6.50190       79.38990
C         48.12810        5.55243       78.29301
C         46.75618        5.03966       77.89468
O         46.74157        4.20528       77.00015
H         48.54823        7.42770       79.19380
H         48.76132        4.68150       78.57096
H         48.58649        6.02398       77.39636
N         45.57788        5.44358       78.47634
C         44.29006        4.85740       78.09785
C         43.33427        5.88108       77.51475
O         43.55289        7.07689       77.65532
C         43.65183        4.08689       79.29031
C         42.62209        4.85476       80.10509
N         42.91837        6.00748       80.74328
O         41.48180        4.41810       80.17037
H         45.58987        6.15512       79.21213
H         44.47574        4.10364       77.30460
H         44.45445        3.67932       79.94419
H         43.11179        3.21017       78.87085
H         43.86074        6.40430       80.70296
H         42.18830        6.51251       81.26974
N         42.22831        5.45035       76.84952
C         41.17879        6.31695       76.34606
C         41.68404        7.41792       75.43907
O         42.36893        7.14334       74.46437
H         42.10682        4.43564       76.70827
H         40.63537        6.75649       77.21033
H         40.45127        5.69485       75.78178
N         41.31493        8.70473       75.69480
C         41.68444        9.85515       74.87215
C         43.17171       10.18407       74.97159
O         43.91080        9.51261       75.67686
C         40.80051       11.06334       75.27652
C         39.36989       10.86382       74.84384
C         38.35606       10.62116       75.78456
C         39.03918       10.93731       73.48001
C         37.03359       10.44623       75.36459
C         37.71559       10.77668       73.06404
C         36.70752       10.52791       74.00607
O         35.42597       10.36963       73.61872
H         40.68330        8.86556       76.49493
H         41.47936        9.62662       73.80301
H         41.14178       12.01820       74.82587
H         40.84533       11.18248       76.37395
H         38.58922       10.55687       76.84004
H         39.80578       11.13551       72.74048
H         36.26072       10.25056       76.09684
H         37.47565       10.84830       72.01055
H         35.15876       10.42881       72.69024
N         43.66741       11.20546       74.21116
C         45.07099       11.57039       74.03323
C         45.75479       12.09320       75.29275
O         45.90331       11.35363       76.25448
C         45.89591       10.39569       73.41731
C         47.35047       10.81268       73.04862
C         45.18678        9.78217       72.19606
C         47.47010       11.93152       72.00550
H         43.00020       11.73099       73.62691
H         45.07056       12.38741       73.28204
H         45.97938        9.58310       74.17252
H         47.88667        9.91926       72.66073
H         47.88723       11.14634       73.95948
H         44.20109        9.36203       72.48534
H         45.01968       10.53692       71.40167
H         45.79004        8.94446       71.78586
H         48.54314       12.12361       71.79674
H         46.98200       11.64953       71.05127
H         47.03345       12.88010       72.37574
N         46.32500       13.33564       75.28457
C         47.28082       13.77124       76.29923
C         46.70307       13.94212       77.69024
O         47.48892       13.94071       78.62958
C         47.98313       15.07682       75.88617
O         48.66032       14.90854       74.66759
H         46.18985       13.93129       74.45451
H         48.06857       12.99195       76.34528
H         48.73511       15.36651       76.65223
H         47.24709       15.91331       75.82666
H         48.07812       15.27605       73.95276
N         45.37988       14.18787       77.91611
C         44.88598       14.43081       79.26799
C         45.00504       13.12053       80.08757
O         43.96222       12.28685       79.68870
C         43.44593       14.96996       79.23231
H         44.73731       14.26425       77.11395
H         45.51509       15.22396       79.69711
H         42.75624       14.25285       78.74289
H         43.07158       15.16759       80.25533
H         43.41830       15.91970       78.65831
N         44.97958       13.20954       81.55784
C         45.71853       14.32689       82.18208
C         44.73691       15.47332       82.36341
O         43.67512       15.20863       82.91210
C         46.24161       13.91458       83.56849
H         45.37211       12.29457       81.88281
H         46.62653       14.56648       81.59726
H         46.78468       14.76071       84.04153
H         45.41228       13.60095       84.23696
H         46.95553       13.07028       83.47018
N         44.94149       16.76165       81.96130
C         46.17152       17.32267       81.42295
C         45.86153       18.33450       80.33325
O         46.31588       18.14759       79.21209
C         47.10319       17.84586       82.54655
C         46.69510       19.04444       83.43225
C         45.55070       18.80844       84.38594
O         45.78405       18.78002       85.71184
O         44.40318       18.72243       83.98847
H         44.15995       17.40963       82.11940
H         46.77536       16.53470       80.93990
H         48.05323       18.14132       82.04813
H         47.34599       16.99400       83.21838
H         46.51416       19.95427       82.82553
H         47.58551       19.25610       84.06409
N         45.06742       19.41522       80.57197
C         44.73740       20.37027       79.53722
H         44.05835       21.14941       79.94463
H         45.66097       20.86010       79.16351
H         44.22159       19.85669       78.69768
H         44.66219       19.56267       81.50600
Ca        44.63467       10.15600       79.56418
O         42.97335       11.85786       77.35362
H         42.20987       11.92200       77.98186
H         42.89587       12.66268       76.78433
O         41.79312        9.32910       79.96340
H         41.33005       10.11702       79.58279
H         42.20979        9.66589       80.79650

Ca 1.0



