%chk=apoCaM-CA-Ng.loop3.water3.frame863.chk
%nprocshared=20
%mem=10GB
%nosave
#b3lyp/svp scf=(tight,noincore,xqc) Test 
#IOP(5/87=12) Density=Current Pop=(MK,readradii) iop(6/33=2) iop(6/42=6)

apoCaM-CA-Ng.loop3.water3.frame863 

   0  1 
C         75.15030       65.59464       83.25172
C         75.65292       66.80344       82.52350
O         76.76966       66.78328       82.02943
H         74.22846       65.22330       82.75344
H         75.90836       64.78306       83.23524
H         74.91588       65.85855       84.30241
N         74.84898       67.89119       82.38323
C         75.20154       69.02759       81.53668
C         76.10107       70.01131       82.29592
O         76.15796       69.94071       83.51586
C         73.86164       69.61820       80.99832
C         73.89518       70.47324       79.76813
O         72.84264       70.79471       79.24064
O         75.04265       70.85555       79.20309
H         73.89396       67.83099       82.77275
H         75.76142       68.62821       80.66935
H         73.31500       70.14224       81.81112
H         73.23424       68.75647       80.68840
N         76.82495       70.96245       81.63535
C         77.59832       72.02581       82.27923
C         76.88940       73.36614       82.12349
O         77.27394       74.30262       82.80967
C         78.99815       72.17695       81.60746
C         80.19250       71.70120       82.43729
C         81.49250       72.04868       81.68368
C         82.74419       71.54247       82.40530
N         83.95379       71.93029       81.67588
H         76.79439       70.97319       80.61319
H         77.67358       71.85650       83.37635
H         79.19763       73.25172       81.39250
H         79.00169       71.67775       80.61384
H         80.11580       70.60914       82.61570
H         80.19756       72.23427       83.41502
H         81.56342       73.15523       81.57091
H         81.46493       71.59525       80.66871
H         82.69432       70.43378       82.47362
H         82.78774       71.96221       83.43447
H         84.05061       72.97220       81.66947
H         84.78940       71.51760       82.14935
H         83.91615       71.57783       80.69148
N         75.91612       73.55595       81.18967
C         75.30868       74.84078       80.89148
C         73.80436       74.79222       81.17901
O         73.30288       75.73502       81.77772
C         75.73468       75.26199       79.45146
C         75.20080       74.37689       78.35254
O         75.96308       73.47360       77.69493
O         74.03979       74.48302       78.05275
H         75.63642       72.77843       80.59044
H         75.73316       75.63229       81.54951
H         76.84665       75.24245       79.42265
H         75.42266       76.31085       79.24851
N         73.03516       73.70682       80.85108
C         71.60647       73.58336       81.14396
C         70.74355       73.54793       79.88467
O         69.53881       73.69182       79.99596
H         73.48727       72.91756       80.38398
H         71.27036       74.46575       81.72861
H         71.41625       72.68428       81.77110
N         71.31675       73.45168       78.65104
C         70.66296       73.77554       77.38994
C         71.16789       72.88434       76.27148
O         72.36805       72.71280       76.13340
C         71.06726       75.21217       76.98706
C         70.55103       76.23865       77.95761
N         71.40237       76.97827       78.70651
O         69.34624       76.40647       78.06572
H         72.31177       73.28691       78.60736
H         69.55536       73.74676       77.47005
H         70.66866       75.45826       75.97905
H         72.16758       75.28553       76.90846
H         72.42192       76.84127       78.64566
H         71.03746       77.68275       79.36413
N         70.29685       72.40360       75.34577
C         70.71988       71.75666       74.11580
C         71.49282       70.49164       74.35077
O         71.10327       69.69687       75.19574
H         69.29013       72.58018       75.46768
H         71.32853       72.46578       73.51001
H         69.81689       71.50432       73.52338
N         72.56542       70.20063       73.55987
C         73.30915       68.95650       73.67912
C         74.28884       69.00325       74.88766
O         73.77348       69.71604       75.98770
C         74.09861       68.68009       72.37364
C         73.18188       68.43828       71.18919
C         72.51279       67.20783       71.04449
C         72.99866       69.42982       70.21019
C         71.68229       66.97585       69.94017
C         72.15360       69.20247       69.11779
C         71.49652       67.97628       68.97524
O         70.69471       67.77208       67.90929
H         72.79529       70.84630       72.78855
H         72.57847       68.12663       73.81558
H         74.76612       67.79518       72.46840
H         74.75652       69.55625       72.18428
H         72.64790       66.42051       71.77572
H         73.49813       70.38559       70.29835
H         71.18459       66.01928       69.83364
H         72.01107       69.98058       68.37828
H         70.22473       66.93780       67.76673
N         74.71794       67.61540       75.22844
C         74.92845       67.16964       76.62392
C         76.07013       67.96708       77.22062
O         75.89004       69.12852       77.53242
C         73.61588       67.11238       77.48349
C         73.85327       66.62196       78.93322
C         72.52564       66.25757       76.80880
C         74.37988       65.19658       79.09267
H         74.21682       66.87255       74.68804
H         75.28145       66.11889       76.53877
H         73.20140       68.13286       77.58960
H         72.89554       66.69572       79.49579
H         74.57786       67.29786       79.41018
H         72.24823       66.67152       75.81919
H         72.86605       65.21098       76.66557
H         71.60282       66.25179       77.42808
H         73.66166       64.45592       78.68742
H         75.36579       65.07962       78.60113
H         74.50901       64.98413       80.17538
N         77.32220       67.43615       77.27858
C         78.49387       68.24703       77.61912
C         79.83261       67.65511       77.19775
O         80.79393       68.41032       77.18162
C         78.54970       68.59421       79.11865
O         78.80882       67.45465       79.89291
H         77.41519       66.48348       76.91822
H         78.39858       69.18259       77.02344
H         77.62269       69.09122       79.45858
H         79.37459       69.31602       79.30055
H         78.00910       66.87452       79.82349
N         80.00403       66.34087       76.85769
C         81.29091       65.81858       76.42291
C         81.72707       66.47948       75.11993
O         80.88119       67.05108       74.44354
C         81.17968       64.30249       76.23429
H         79.23391       65.67181       76.93487
H         82.02289       66.04264       77.22823
H         82.13708       63.86888       75.91708
H         80.88033       63.82513       77.19178
H         80.41332       64.06668       75.46401
N         83.02644       66.52943       74.70327
C         84.17156       66.01743       75.44711
C         85.22682       65.48990       74.47947
O         85.64192       66.25783       73.62319
C         84.77767       67.16264       76.26585
H         83.22195       67.09311       73.86065
H         83.86054       65.25327       76.17524
H         84.02726       67.55741       76.98406
H         85.65271       66.79658       76.84498
H         85.10315       67.99634       75.60740
N         85.77057       64.23590       74.53561
C         85.43472       63.20568       75.51097
C         84.17172       62.44567       75.11228
O         83.69999       61.64584       75.90645
C         86.65611       62.26897       75.67858
C         86.52216       61.23943       76.81115
C         87.82138       60.51635       77.02323
O         88.45474       60.60592       78.20861
O         88.31120       59.84848       76.12634
H         86.52474       64.02823       73.86054
H         85.29469       63.68688       76.50207
H         87.52561       62.91915       75.92629
H         86.87406       61.74913       74.71904
H         85.73817       60.49093       76.57710
H         86.24984       61.76441       77.75232
N         83.56115       62.64422       73.90420
C         82.35413       61.95107       73.49676
H         81.56207       62.69623       73.27353
H         82.56048       61.36160       72.57879
H         81.97201       61.26060       74.27743
H         83.95710       63.30538       73.22285
Ca        75.07648       71.60419       76.59588
O         77.32517       70.97512       74.81795
H         76.96849       70.05489       74.74053
H         76.99010       71.43992       74.01052
O         78.11591       71.68349       78.06353
H         79.02035       71.28739       78.02673
H         78.24940       72.59525       77.70635
O         74.55352       73.53832       74.28598
H         74.53958       72.67602       73.79944
H         73.61941       73.86286       74.24101

Ca 1.0



