%chk=apoCaM-CA-Ng.loop2.water4.frame1459.chk
%nprocshared=20
%mem=10GB
%nosave
#b3lyp/svp scf=(tight,noincore,xqc) Test 
#IOP(5/87=12) Density=Current Pop=(MK,readradii) iop(6/33=2) iop(6/42=6)

apoCaM-CA-Ng.loop2.water4.frame1459 

   -2  1 
C         47.70633       91.43502       71.23290
C         48.64622       92.08625       70.25470
O         48.94145       93.25950       70.42973
H         46.79395       91.08018       70.71320
H         48.20940       90.58138       71.73265
H         47.40435       92.15750       72.02086
N         49.20595       91.41276       69.20847
C         49.00469       89.98776       68.94746
C         48.94541       89.62475       67.45926
O         48.74776       88.45063       67.17469
C         50.09255       89.17572       69.69626
C         51.52340       89.53433       69.37938
O         52.51311       88.92703       70.05766
O         51.80533       90.38798       68.55537
H         49.91656       91.92489       68.66589
H         48.02845       89.66277       69.36340
H         49.94283       88.08944       69.51289
H         49.96079       89.34847       70.78426
N         49.11827       90.53678       66.45176
C         49.13019       90.17053       65.02983
C         50.32578       89.29243       64.63709
O         50.43913       88.94810       63.46860
C         49.16057       91.44511       64.17165
H         49.23481       91.53124       66.68567
H         48.18705       89.63159       64.79044
H         49.11156       91.19166       63.09053
H         48.28543       92.08594       64.41115
H         50.09156       92.02216       64.36157
N         51.25523       88.89334       65.54929
C         52.45627       88.13700       65.23966
C         53.00309       87.53965       66.51793
O         54.03244       87.96686       67.00453
C         53.47359       89.00719       64.45592
C         53.55898       90.47283       64.85182
O         53.25209       91.30171       64.00920
O         53.95747       90.93806       66.05882
H         51.14538       89.16102       66.52855
H         52.22469       87.24775       64.61088
H         53.12988       89.00080       63.39718
H         54.47438       88.52574       64.45108
N         52.35568       86.49298       67.10702
C         52.82592       85.87535       68.33594
C         54.21645       85.26789       68.24319
O         54.73670       84.90439       69.28820
H         51.48949       86.13072       66.67923
H         52.11478       85.08645       68.66410
H         52.84122       86.65624       69.11937
N         54.87830       85.10614       67.05627
C         56.24078       84.58011       66.96322
C         57.19148       85.52794       66.23448
O         58.36129       85.19116       66.11373
C         56.21721       83.21413       66.25846
C         55.42654       82.20357       67.05024
N         55.81734       81.84415       68.29681
O         54.42868       81.69860       66.55922
H         54.39561       85.32994       66.17415
H         56.66691       84.44166       67.97448
H         57.25162       82.82183       66.14930
H         55.78209       83.33737       65.24179
H         56.66241       82.24866       68.72532
H         55.27754       81.15267       68.83706
N         56.78130       86.73228       65.74863
C         57.64164       87.68034       65.06763
C         57.73378       88.93981       65.89865
O         56.69064       89.46337       66.25634
H         55.81022       87.02131       65.86750
H         57.18026       87.92476       64.08680
H         58.63428       87.24055       64.86785
N         58.90964       89.52320       66.26444
C         60.22211       89.15209       65.74964
C         60.88715       88.09332       66.61914
O         61.27742       87.06209       66.09183
C         61.10696       90.41702       65.57572
C         60.46593       91.40276       64.58071
O         61.30934       91.05668       66.80942
H         58.84308       90.38689       66.82697
H         60.13088       88.75829       64.71405
H         62.08836       90.08818       65.16104
H         62.03927       91.71650       66.67485
H         59.48550       91.76935       64.95305
H         61.12790       92.28129       64.43058
H         60.31000       90.91383       63.59532
N         61.07386       88.29764       67.95409
C         61.83477       87.40790       68.83314
C         60.94085       86.87625       69.95861
O         60.27909       87.68737       70.58994
C         63.03290       88.22102       69.41187
C         64.03069       88.67355       68.30750
C         63.77837       87.47048       70.52430
C         64.74619       87.53389       67.56423
H         60.69848       89.16288       68.37117
H         62.25692       86.55935       68.27659
H         62.62427       89.14134       69.88690
H         64.81020       89.31215       68.77737
H         63.50012       89.29874       67.55931
H         63.10161       87.24508       71.37493
H         64.20430       86.51797       70.15679
H         64.59852       88.10561       70.92044
H         64.03229       86.89274       67.01013
H         65.45078       87.96452       66.82297
H         65.33909       86.90410       68.25848
N         60.91958       85.55968       70.36045
C         61.72755       84.48441       69.77312
C         61.89804       83.27338       70.70005
O         61.25215       83.18688       71.73680
C         61.11088       84.01872       68.42978
C         59.76722       83.37110       68.63607
O         59.58438       82.21196       68.29950
O         58.76512       84.06225       69.20881
H         60.34784       85.34443       71.19210
H         62.75481       84.86816       69.62152
H         61.79293       83.29271       67.93673
H         60.97693       84.86808       67.73349
N         62.77509       82.28619       70.35251
C         62.95907       81.02922       71.07514
C         64.39094       80.91372       71.58308
O         65.29740       81.16349       70.79575
C         62.60756       79.87228       70.11104
C         62.68984       78.50449       70.75733
C         63.93240       77.92350       71.07843
C         61.51314       77.78952       71.04134
C         63.99232       76.66753       71.68720
C         61.57807       76.53307       71.65142
C         62.81608       75.97400       71.97681
H         63.33236       82.41583       69.49241
H         62.24613       80.95681       71.91735
H         63.24742       79.88863       69.20149
H         61.56187       80.05504       69.77741
H         64.85904       78.43406       70.85689
H         60.54363       78.20820       70.80253
H         64.95227       76.23233       71.93400
H         60.66702       75.99355       71.87427
H         62.86431       75.00206       72.45015
N         64.70817       80.47022       72.84433
C         63.76177       80.01225       73.85646
C         62.97481       81.16911       74.43618
O         61.75338       81.08516       74.46158
C         64.64571       79.23991       74.84659
C         65.97922       79.94752       74.77167
C         66.08143       80.27903       73.28134
H         63.04200       79.26534       73.45572
H         64.21668       79.08644       75.85969
H         64.82764       78.23360       74.40160
H         65.89833       80.87733       75.36197
H         66.84627       79.38481       75.17826
H         66.71343       81.18366       73.14433
H         66.50669       79.42684       72.70666
N         63.58615       82.31383       74.83823
C         62.83857       83.50351       75.20834
C         62.45333       83.40782       76.68130
O         63.36583       83.42394       77.49646
C         63.70011       84.76432       74.95364
C         64.21654       84.83985       73.49724
C         65.15443       85.99322       73.27824
O         65.40056       86.89110       74.25201
O         65.73641       86.09577       72.21137
H         64.60398       82.38997       74.74051
H         61.98086       83.60632       74.51932
H         64.58355       84.73850       75.62905
H         63.10263       85.67399       75.18388
H         63.36609       84.90281       72.78461
H         64.79752       83.92865       73.25059
N         61.17723       83.28746       77.15600
C         59.96290       83.16396       76.37477
H         59.27396       83.99429       76.63211
H         60.11713       83.16332       75.28565
H         59.46964       82.20341       76.63676
H         61.05270       83.24810       78.18016
Ca        54.68963       90.23069       68.08811
O         57.10872       90.91108       69.82380
H         57.59879       90.29098       70.41993
H         57.66356       90.95985       69.00537
O         53.93118       91.97687       70.52609
H         53.96364       91.96192       71.51545
H         53.16391       92.56436       70.31019
O         55.64210       93.14614       67.43994
H         55.12311       93.32522       66.61587
H         56.54490       92.90058       67.11577
O         55.49392       88.00564       70.17583
H         56.10666       87.38440       69.70804
H         54.83249       87.41731       70.61935

Ca 1.0



