%chk=apoCaM-CA-Ng.loop4.water5.frame744.chk
%nprocshared=20
%mem=10GB
%nosave
#b3lyp/svp scf=(tight,noincore,xqc) Test 
#IOP(5/87=12) Density=Current Pop=(MK,readradii) iop(6/33=2) iop(6/42=6)

apoCaM-CA-Ng.loop4.water5.frame744 

   -3  1 
C        104.77910       14.32046       -3.14693
C        105.98462       13.42950       -3.25746
O        105.89661       12.39648       -3.90397
H        103.94452       13.76584       -2.66917
H        104.99455       15.22243       -2.53499
H        104.46497       14.65213       -4.15889
N        107.15788       13.78284       -2.65755
C        108.39352       13.00098       -2.69861
C        108.85135       12.81727       -4.13377
O        109.12609       11.70128       -4.55702
C        108.23532       11.65797       -1.94334
C        107.79209       11.83657       -0.51593
O        107.64513       13.06586        0.01922
O        107.47898       10.85538        0.13769
H        107.19331       14.67777       -2.14553
H        109.18285       13.58779       -2.17888
H        109.18796       11.08688       -1.95275
H        107.46477       11.04653       -2.46101
N        108.91401       13.89935       -4.95860
C        109.31282       13.79761       -6.35673
C        110.81999       13.55668       -6.45762
O        111.54961       14.18561       -5.70393
C        108.88031       15.03512       -7.19903
C        109.55941       16.35396       -6.74759
C        107.34186       15.14655       -7.20141
C        109.24566       17.53654       -7.66274
H        108.60618       14.80765       -4.58487
H        108.73741       12.95122       -6.77697
H        109.19390       14.83095       -8.24829
H        110.66001       16.22610       -6.77579
H        109.26409       16.61781       -5.71144
H        106.99014       15.93150       -7.89849
H        106.89676       14.19724       -7.55551
H        106.94731       15.36080       -6.18651
H        109.80972       18.42648       -7.31447
H        109.55238       17.30530       -8.70511
H        108.16794       17.79292       -7.64061
N        111.39790       12.66784       -7.31868
C        110.68620       11.86700       -8.30398
C        110.55840       10.43186       -7.84255
O        109.59505        9.80050       -8.24367
C        111.29903       12.01254       -9.71304
C        112.74211       11.59270       -9.79192
O        113.10024       10.32347       -9.52149
O        113.59554       12.40069      -10.12322
H        112.42097       12.54526       -7.25652
H        109.65351       12.23136       -8.43755
H        111.21718       13.08004      -10.01861
H        110.71245       11.40875      -10.44004
N        111.40677        9.87118       -6.92879
C        111.22012        8.52001       -6.43137
C        111.46298        7.49726       -7.51541
O        112.59161        7.37177       -7.96892
H        112.18723       10.41713       -6.53884
H        110.19313        8.43701       -6.01360
H        111.93303        8.31543       -5.60380
N        110.43227        6.74722       -7.99525
C        110.58035        5.73277       -9.03684
C        110.05902        6.21516      -10.38625
O        110.05818        5.43034      -11.32368
C        109.93107        4.39602       -8.58918
C        108.44242        4.41108       -8.32645
O        107.83043        3.26711       -7.96741
O        107.78038        5.42956       -8.42365
H        109.48856        6.94661       -7.63483
H        111.65675        5.50932       -9.20672
H        110.43309        4.05306       -7.65931
H        110.12290        3.63432       -9.37580
N        109.67997        7.51156      -10.58739
C        109.23222        8.03330      -11.86591
C        107.85404        7.55305      -12.25656
O        107.44216        7.84860      -13.36779
H        109.76986        8.18229       -9.82720
H        109.97741        7.75723      -12.64330
H        109.18596        9.14341      -11.81934
N        107.07473        6.82386      -11.40255
C        105.77014        6.26874      -11.74383
C        104.72150        7.34707      -11.99852
O        103.66057        7.01908      -12.51202
C        105.89541        5.26955      -12.91970
C        107.02557        4.24874      -12.67468
C        107.19067        3.24480      -13.78483
N        108.23165        2.38094      -13.75135
O        106.40708        3.21222      -14.72247
H        107.42096        6.61657      -10.46171
H        105.40530        5.67619      -10.87456
H        106.11029        5.81104      -13.86448
H        104.92722        4.73540      -13.04053
H        106.86016        3.70809      -11.71708
H        107.98288        4.80027      -12.60738
H        108.91376        2.41072      -12.97844
H        108.36994        1.69560      -14.50822
N        104.91476        8.63897      -11.59294
C        103.93423        9.70499      -11.78619
C        103.33489       10.17949      -10.46548
O        102.47081       11.04383      -10.51838
C        104.55858       10.89865      -12.57358
C        105.76586       11.53257      -11.85601
C        104.95631       10.47804      -13.99376
H        105.77842        8.87756      -11.08732
H        103.07017        9.33124      -12.37895
H        103.78018       11.68714      -12.67916
H        106.12577       12.41628      -12.42468
H        105.48103       11.87658      -10.84105
H        106.61433       10.82208      -11.77238
H        104.07114       10.08532      -14.53747
H        105.34534       11.35327      -14.55754
H        105.74037        9.69561      -13.97306
N        103.71716        9.67054       -9.25307
C        103.14816       10.12938       -7.98644
C        102.49224        8.98373       -7.23154
O        102.55703        7.84315       -7.66697
C        104.25794       10.77162       -7.13325
C        104.88974       11.94032       -7.84225
N        104.16462       13.04440       -8.14197
O        106.07149       11.88796       -8.14707
H        104.44653        8.94585       -9.20448
H        102.35403       10.88602       -8.16613
H        105.03327       10.00229       -6.92033
H        103.85592       11.13525       -6.16409
H        103.16941       13.10987       -7.88281
H        104.59952       13.84184       -8.62895
N        101.78944        9.25035       -6.09271
C        101.08064        8.22493       -5.32079
C        100.09749        8.85953       -4.33076
O         99.98718       10.07687       -4.29959
C        102.07307        7.27917       -4.59132
C        102.71989        7.92045       -3.38120
C        103.63265        8.98009       -3.50915
C        102.38409        7.45987       -2.09440
C        104.18547        9.57514       -2.36949
C        102.93211        8.05908       -0.95994
C        103.82957        9.12006       -1.09179
O        104.33843        9.69505        0.01434
H        101.72089       10.23892       -5.81314
H        100.47349        7.62055       -6.02992
H        102.84529        6.87837       -5.28112
H        101.48825        6.39783       -4.25261
H        103.91712        9.34617       -4.48471
H        101.68132        6.64621       -1.96452
H        104.88572       10.39185       -2.47755
H        102.65141        7.70203        0.02314
H        104.94166       10.44871       -0.03046
N         99.36152        8.09384       -3.46841
C         98.45069        8.68641       -2.49533
C         98.96633        8.44636       -1.08968
O         98.86680        7.31902       -0.62446
C         97.03364        8.09415       -2.62330
C         96.37571        8.40531       -3.96827
C         95.00338        7.79553       -4.02377
O         94.73004        6.97393       -4.88386
O         94.06777        8.14952       -3.12096
H         99.47419        7.06990       -3.47073
H         98.36272        9.76756       -2.66780
H         96.39787        8.51765       -1.81333
H         97.08257        6.98947       -2.48706
H         96.99938        8.00040       -4.79466
H         96.28697        9.50570       -4.09273
N         99.55086        9.41295       -0.32038
C         99.95425       10.74933       -0.76128
C         98.80761       11.65904       -1.15679
O         97.81345       11.73179       -0.44886
C        100.79801       11.42126        0.33920
C        101.42937       12.73478       -0.14011
C        102.51136       13.16025        0.79951
O        102.27897       13.44849        1.96229
O        103.76703       13.13467        0.32804
H         99.83298        9.12688        0.63164
H        100.63926       10.62027       -1.62966
H        101.62504       10.71608        0.58083
H        100.20264       11.59428        1.26293
H        100.67253       13.53697       -0.27208
H        101.91137       12.54851       -1.12680
N         98.93898       12.44385       -2.26711
C         97.94073       13.38807       -2.72128
H         97.01996       13.35968       -2.10424
H         98.36441       14.41498       -2.68114
H         97.67428       13.15822       -3.77416
H         99.81569       12.40278       -2.80947
Ca       105.79544       13.36929        1.24138
O        104.73923       10.90259        3.05788
H        104.80815       10.01383        2.62832
H        103.96043       10.82479        3.66411
O        106.02918       12.96907        4.99715
H        105.05655       12.83229        5.12243
H        106.44025       12.58870        5.81340
O        104.39796       15.09115        3.44795
H        103.96199       15.47020        2.64395
H        103.89048       15.47010        4.20875
O        108.09812       11.51418        3.01108
H        109.07385       11.40954        2.87927
H        107.72933       10.60622        2.87027
O        108.09692       14.70184        3.25403
H        107.97783       15.54833        3.75357
H        108.80805       14.22089        3.74752

Ca 1.0



