%chk=apoCaM-CA-Ng.loop3.water5.frame340.chk
%nprocshared=20
%mem=10GB
%nosave
#b3lyp/svp scf=(tight,noincore,xqc) Test 
#IOP(5/87=12) Density=Current Pop=(MK,readradii) iop(6/33=2) iop(6/42=6)

apoCaM-CA-Ng.loop3.water5.frame340 

   0  1 
C         88.60518       73.74837       53.61502
C         89.36348       72.64506       52.94023
O         88.75209       71.69946       52.46552
H         87.51357       73.54889       53.59948
H         88.93573       73.82940       54.67221
H         88.80421       74.70989       53.09718
N         90.72289       72.70643       52.87633
C         91.57630       71.68404       52.28302
C         91.42629       70.37330       53.04694
O         91.12564       69.34223       52.46030
C         91.31975       71.57603       50.75860
C         92.31370       70.70809       50.02711
O         92.20964       70.56768       48.81925
O         93.32673       70.09950       50.67550
H         91.19201       73.52586       53.29335
H         92.62989       72.02168       52.41145
H         91.39158       72.59504       50.31898
H         90.29772       71.18757       50.56747
N         91.63865       70.36293       54.39462
C         91.60068       69.15350       55.22004
C         90.24510       68.44272       55.24870
O         90.17810       67.34982       55.79455
C         92.02840       69.49404       56.66945
C         90.98540       70.36623       57.40127
C         91.44778       70.74761       58.80923
C         90.34192       71.51847       59.54526
N         90.77608       71.91153       60.88434
H         91.89876       71.25790       54.83684
H         92.35123       68.45242       54.79174
H         93.00936       70.01828       56.63843
H         92.16686       68.55212       57.24410
H         90.03456       69.79654       57.48382
H         90.78472       71.29835       56.83109
H         92.36187       71.37688       58.73530
H         91.68946       69.82777       59.38484
H         89.43929       70.87179       59.62914
H         90.06617       72.42902       58.96778
H         89.98953       72.40329       61.36703
H         91.03948       71.06633       61.44118
H         91.59265       72.56152       60.81808
N         89.11892       69.01231       54.73431
C         87.80030       68.38468       54.77695
C         87.80166       67.07451       54.00840
O         88.35567       67.02201       52.91864
C         86.75949       69.34395       54.18206
C         85.36804       68.78259       54.25677
O         84.77335       68.51841       55.43124
O         84.75103       68.56623       53.23396
H         89.18824       69.95001       54.31928
H         87.51378       68.20562       55.83760
H         87.02555       69.55456       53.12218
H         86.77674       70.30589       54.73846
N         87.17982       65.97310       54.52027
C         87.21846       64.67266       53.87087
C         86.62945       64.63228       52.47117
O         86.92606       63.67293       51.77317
H         86.69765       66.04694       55.42825
H         86.70264       63.91021       54.49547
H         88.28687       64.37666       53.80299
N         85.78091       65.59166       51.99085
C         85.26498       65.58347       50.61920
C         85.59464       66.86594       49.84488
O         85.31309       66.90106       48.65564
C         83.75953       65.22816       50.61913
C         82.86476       66.18986       51.36286
N         82.64966       67.44124       50.90307
O         82.29277       65.81581       52.37570
H         85.46300       66.32931       52.62951
H         85.75765       64.76772       50.04601
H         83.66835       64.22730       51.09754
H         83.38771       65.12633       49.57630
H         83.09067       67.76442       50.03358
H         82.01884       68.08196       51.40578
N         86.20150       67.94323       50.42950
C         86.61171       69.14756       49.71370
C         85.90719       70.40194       50.20446
O         86.38172       71.48935       49.90649
H         86.42210       67.92183       51.43020
H         86.46490       69.06817       48.61595
H         87.70230       69.26604       49.89442
N         84.74665       70.33488       50.91273
C         84.02030       71.49049       51.43637
C         82.68909       71.02285       52.00161
O         82.68324       70.24004       52.94198
C         84.84163       72.19793       52.53778
C         84.03487       73.24811       53.26619
C         83.52587       74.36809       52.59045
C         83.76192       73.08971       54.63664
C         82.75033       75.31035       53.27487
C         82.98566       74.02942       55.31690
C         82.47474       75.14338       54.63728
O         81.71538       76.05294       55.28019
H         84.33464       69.40677       51.05489
H         83.81984       72.19988       50.60360
H         85.75830       72.65291       52.11045
H         85.16243       71.42819       53.26673
H         83.72139       74.50635       51.53491
H         84.13828       72.23048       55.17898
H         82.35622       76.16709       52.74383
H         82.77729       73.88581       56.36986
H         81.49433       75.96581       56.21868
N         81.51740       71.43859       51.44566
C         80.21838       70.92061       51.86075
C         79.66023       69.96471       50.81491
O         78.71175       69.27068       51.13733
C         79.22830       72.05222       52.26943
C         79.01037       73.08088       51.12971
C         79.72408       72.72716       53.55985
C         77.95068       74.13788       51.45054
H         81.55993       72.08389       50.64272
H         80.34672       70.26796       52.75305
H         78.25068       71.57627       52.50863
H         78.67749       72.54082       50.21865
H         79.95780       73.61206       50.89931
H         79.82329       71.97046       54.36213
H         80.70675       73.21305       53.39902
H         79.00143       73.47749       53.93616
H         76.97624       73.65475       51.67281
H         78.25360       74.77224       52.30822
H         77.82541       74.80912       50.57511
N         80.25015       69.79254       49.58972
C         79.89847       68.69332       48.69344
C         78.46114       68.69814       48.21504
O         78.02222       67.64979       47.76152
C         80.81802       68.67983       47.45843
O         82.16032       68.60620       47.85359
H         81.04047       70.38974       49.31745
H         80.06079       67.75195       49.26566
H         80.63655       69.61653       46.87908
H         80.58424       67.80315       46.81546
H         82.69724       68.99453       47.11477
N         77.67576       69.81732       48.23810
C         76.30414       69.84714       47.73331
C         75.35147       68.97728       48.54636
O         74.21164       68.82873       48.13048
C         76.26479       69.47908       46.23644
H         78.06962       70.70131       48.59213
H         75.92086       70.88915       47.80316
H         76.56382       68.42954       46.04550
H         75.23610       69.60554       45.83686
H         76.93919       70.15109       45.66484
N         75.71917       68.42642       49.74342
C         74.82822       67.60874       50.55388
C         74.45372       68.33020       51.82966
O         75.10173       69.30078       52.19671
C         75.51323       66.27989       50.88365
H         76.64767       68.61987       50.12841
H         73.88754       67.40577       49.99922
H         74.84861       65.63229       51.49296
H         75.77888       65.74444       49.94818
H         76.44848       66.46587       51.45878
N         73.34949       67.92596       52.52600
C         72.86999       68.54184       53.76089
C         72.46936       70.01021       53.60538
O         72.09042       70.60561       54.60549
C         73.90055       68.35686       54.89791
C         74.20632       66.87006       55.14226
C         75.14719       66.69166       56.29721
O         74.76031       65.98724       57.37807
O         76.26844       67.17287       56.25953
H         72.80926       67.12628       52.16238
H         71.94774       68.00496       54.07932
H         73.47700       68.78087       55.83565
H         74.83983       68.90315       54.66900
H         74.66393       66.41654       54.23695
H         73.25759       66.33311       55.36329
N         72.49041       70.66489       52.40705
C         72.12582       72.06064       52.29214
H         71.07865       72.21112       52.62952
H         72.80928       72.68180       52.90984
H         72.21034       72.38913       51.23411
H         72.75794       70.18115       51.54072
Ca        82.65020       67.75970       55.22058
O         81.94794       67.93331       58.08056
H         81.33259       68.70478       58.00243
H         82.84394       68.31196       57.89408
O         80.85520       65.19387       55.19043
H         80.25584       65.80635       55.68639
H         81.39389       64.75304       55.89413
O         84.20378       65.43591       55.88255
H         83.99448       64.50038       55.63801
H         83.98127       65.50302       56.84505
O         81.23195       70.25372       55.67709
H         80.60845       70.61412       56.35582
H         81.81840       71.01685       55.44683
O         79.57547       67.75377       53.70390
H         79.14767       66.90253       53.43418
H         78.81875       68.34974       53.93354

Ca 1.0



