%chk=apoCaM-CA-Ng.loop2.water4.frame1418.chk
%nprocshared=20
%mem=10GB
%nosave
#b3lyp/svp scf=(tight,noincore,xqc) Test 
#IOP(5/87=12) Density=Current Pop=(MK,readradii) iop(6/33=2) iop(6/42=6)

apoCaM-CA-Ng.loop2.water4.frame1418 

   -2  1 
C         88.11783       94.01716        0.49139
C         86.70741       93.66375        0.08118
O         86.56928       92.64273       -0.57661
H         88.73759       94.10694       -0.42613
H         88.24522       94.96098        1.04263
H         88.53383       93.20062        1.11710
N         85.59416       94.40794        0.36458
C         85.53960       95.63450        1.15870
C         85.23694       96.86402        0.30741
O         85.12954       97.94257        0.87565
C         84.55117       95.47532        2.34091
C         83.10053       95.27072        1.98879
O         82.72406       95.19459        0.83210
O         82.19686       95.18291        2.98146
H         84.70543       94.06875       -0.03353
H         86.50724       95.84806        1.63728
H         84.61117       96.39012        2.96970
H         84.87871       94.61674        2.96682
N         85.16665       96.80937       -1.05784
C         85.01416       98.01258       -1.87692
C         83.64447       98.66763       -1.74727
O         83.47756       99.77516       -2.23836
C         85.26402       97.67695       -3.35233
H         85.31110       95.90728       -1.53497
H         85.79482       98.73738       -1.55631
H         86.27302       97.22734       -3.47193
H         84.50577       96.94975       -3.71739
H         85.21483       98.59352       -3.97722
N         82.60224       98.01354       -1.16904
C         81.24143       98.53008       -1.08462
C         80.75260       98.52812        0.35924
O         81.50623       98.18163        1.25903
C         80.34038       97.72396       -2.06527
C         80.62542       96.23784       -2.15996
O         80.48989       95.39333       -1.11898
O         81.00194       95.78169       -3.22832
H         82.75106       97.05761       -0.82354
H         81.17980       99.59260       -1.41053
H         80.54812       98.13538       -3.07928
H         79.26281       97.90798       -1.88217
N         79.47216       98.90588        0.64321
C         78.88188       98.91780        1.97142
C         77.82115       97.80612        2.03087
O         78.36768       96.63714        2.56793
H         78.84898       99.17581       -0.13179
H         78.43072       99.92252        2.12182
H         79.62849       98.76605        2.78156
N         76.58647       98.17495        2.73370
C         75.52094       97.15987        2.52793
C         75.36906       96.78233        1.05863
O         75.25034       97.67000        0.22415
C         74.17655       97.67348        3.07327
C         74.24881       97.95658        4.55302
N         73.98381       99.19243        5.03592
O         74.54042       97.05559        5.32590
H         76.25489       99.07927        2.32213
H         75.77786       96.24274        3.10311
H         73.39795       96.89629        2.91060
H         73.87059       98.58593        2.51596
H         73.72946       99.96505        4.40373
H         74.02892       99.37707        6.04904
N         75.38775       95.47121        0.67144
C         75.40928       95.06882       -0.72824
C         76.75066       95.42705       -1.34614
O         77.60400       95.91570       -0.62853
H         75.40736       94.73094        1.38786
H         74.56459       95.55677       -1.25928
H         75.28285       93.96710       -0.80204
N         77.05042       95.25656       -2.66278
C         76.10690       94.78560       -3.66445
C         75.84597       93.29063       -3.56731
O         74.85797       92.84816       -4.13492
C         76.57494       95.16351       -5.09394
C         76.75719       96.68679       -5.25430
O         77.74669       94.46841       -5.45356
H         77.98258       95.57361       -2.96401
H         75.14900       95.32478       -3.49504
H         75.78016       94.86329       -5.81033
H         78.52353       94.90276       -5.01548
H         77.54884       97.08156       -4.58235
H         77.04631       96.92809       -6.29765
H         75.80855       97.21307       -5.01599
N         76.69098       92.45124       -2.89300
C         76.45150       91.01901       -2.73096
C         76.39953       90.72760       -1.23062
O         77.36630       91.05662       -0.56000
C         77.58774       90.15579       -3.36777
C         77.98161       90.55829       -4.81199
C         77.21076       88.65876       -3.30783
C         76.86971       90.47639       -5.85780
H         77.54385       92.83833       -2.46558
H         75.51514       90.73272       -3.24500
H         78.51504       90.29393       -2.76797
H         78.81318       89.89587       -5.14286
H         78.37598       91.59634       -4.80155
H         76.28482       88.45316       -3.88650
H         78.02941       88.03195       -3.71785
H         77.03124       88.33490       -2.26196
H         76.46994       89.44684       -5.94864
H         76.04674       91.17224       -5.61331
H         77.28536       90.77057       -6.84531
N         75.37696       90.08300       -0.60021
C         74.17852       89.57850       -1.25505
C         73.51052       88.46703       -0.44913
O         73.92758       88.15926        0.66078
C         73.19087       90.74777       -1.53575
C         72.71127       91.48134       -0.30415
O         73.12780       91.13773        0.93029
O         71.93218       92.41277       -0.42974
H         75.50744       89.90035        0.40715
H         74.46969       89.08495       -2.20533
H         72.30026       90.36513       -2.07594
H         73.67182       91.49637       -2.19342
N         72.43096       87.83056       -0.97426
C         71.61905       86.85684       -0.25956
C         71.38033       85.62030       -1.12815
O         71.00547       85.81443       -2.27918
C         70.26416       87.53702       -0.00239
C         69.34262       86.66886        0.80583
C         68.25857       86.03032        0.18619
C         69.55893       86.49000        2.18251
C         67.40395       85.21713        0.93163
C         68.69198       85.68658        2.92843
C         67.61685       85.04863        2.30251
H         72.10632       88.11975       -1.91047
H         72.05946       86.60251        0.72557
H         69.80595       87.77771       -0.98764
H         70.39971       88.50417        0.53101
H         68.08640       86.15027       -0.87635
H         70.38960       86.97998        2.67679
H         66.57654       84.71936        0.44429
H         68.85349       85.55845        3.99081
H         66.94828       84.42373        2.87883
N         71.45584       84.32776       -0.67186
C         71.78004       83.89400        0.68257
C         73.20797       84.19937        1.05381
O         73.44975       84.81688        2.08095
C         71.54927       82.37094        0.65059
C         70.46787       82.24359       -0.40115
C         70.98905       83.20456       -1.46079
H         71.05441       84.34934        1.38803
H         72.43629       81.84270        0.23305
H         71.31896       81.91958        1.63928
H         70.28869       81.21005       -0.76659
H         69.51993       82.65383        0.01683
H         71.85663       82.75932       -1.99802
H         70.18127       83.46081       -2.18040
N         74.20936       83.80261        0.22343
C         75.61391       84.08336        0.45944
C         76.19270       83.00325        1.36130
O         76.18192       81.84800        0.95884
C         76.35860       84.11209       -0.89353
C         75.82722       85.24309       -1.79411
C         76.45836       85.19369       -3.15403
O         77.79385       85.29606       -3.28796
O         75.76069       85.06216       -4.14754
H         73.95067       83.32654       -0.65526
H         75.71872       85.09764        0.89763
H         76.22091       83.13340       -1.40741
H         77.44671       84.26684       -0.72382
H         76.04290       86.22421       -1.31985
H         74.72528       85.15696       -1.91635
N         76.71588       83.25908        2.59383
C         76.75821       84.57239        3.19737
H         75.72876       84.96608        3.32270
H         77.22590       84.50900        4.20269
H         77.35860       85.26519        2.57194
H         77.09641       82.47067        3.14075
Ca        79.73801       95.91355        0.92764
O         77.74383       93.72744        2.27033
H         77.17584       94.08972        2.99592
H         77.59893       92.74931        2.30811
O         79.84714       92.88075       -0.02553
H         79.36073       92.93507       -0.88563
H         79.60459       91.99641        0.34499
O         79.56857       95.04975        4.72534
H         78.60635       95.24701        4.85072
H         80.01264       95.93284        4.78585
O         80.81339       92.63935        2.79590
H         80.78107       91.65621        2.68714
H         81.15157       92.77681        3.71591

Ca 1.0



