%chk=apoCaM-CA-Ng.loop2.water4.frame1071.chk
%nprocshared=20
%mem=10GB
%nosave
#b3lyp/svp scf=(tight,noincore,xqc) Test 
#IOP(5/87=12) Density=Current Pop=(MK,readradii) iop(6/33=2) iop(6/42=6)

apoCaM-CA-Ng.loop2.water4.frame1071 

   -2  1 
C         13.83897       52.22939       21.02362
C         14.07472       53.49670       21.80383
O         14.64922       54.40591       21.22264
H         13.24880       52.48267       20.11659
H         14.81322       51.80651       20.70300
H         13.27679       51.44714       21.55844
N         13.65503       53.70798       23.08678
C         12.94997       52.76139       23.94864
C         13.53151       52.81149       25.36620
O         14.65687       53.26938       25.51348
C         11.43184       53.01015       23.81183
C         10.98736       54.38182       24.22755
O         10.51171       55.14833       23.40535
O         11.05881       54.75534       25.51426
H         13.79159       54.65725       23.46540
H         13.09918       51.71715       23.61815
H         10.85134       52.25245       24.37609
H         11.17814       52.86745       22.73713
N         12.84357       52.34473       26.45645
C         13.38699       52.29760       27.81996
C         13.79546       53.66133       28.39410
O         14.36724       53.68743       29.47526
C         14.55878       51.30584       27.87319
H         11.89127       51.97707       26.32626
H         12.60647       51.88231       28.49610
H         14.22255       50.31260       27.50507
H         15.41720       51.64439       27.25942
H         14.90622       51.17749       28.92090
N         13.51670       54.82979       27.75068
C         13.93610       56.15124       28.19892
C         12.75216       57.01454       28.56781
O         11.85138       57.16592       27.76707
C         14.79612       56.84367       27.10811
C         14.41758       56.64617       25.64509
O         15.26370       56.15350       24.91640
O         13.23682       56.98116       25.07063
H         12.97392       54.80033       26.88561
H         14.57483       56.09335       29.10800
H         15.81765       56.41288       27.20766
H         14.90283       57.92317       27.33683
N         12.71280       57.67541       29.76339
C         11.67393       58.64750       30.07239
C         11.75994       59.89696       29.19910
O         10.86302       60.72333       29.28250
H         13.45663       57.52192       30.46123
H         11.76855       58.97759       31.12987
H         10.68290       58.15912       29.95330
N         12.82466       60.12720       28.37244
C         12.96291       61.30793       27.51935
C         11.93100       61.31459       26.40302
O         11.17105       60.36905       26.26574
C         14.36790       61.30799       26.85200
C         15.52650       61.37440       27.81730
N         16.79221       61.33132       27.34106
O         15.33693       61.46924       29.02114
H         13.60149       59.45656       28.37429
H         12.85097       62.22590       28.13746
H         14.47567       62.17694       26.16969
H         14.47032       60.38106       26.24358
H         16.96914       61.24686       26.32876
H         17.59731       61.37808       27.98241
N         11.89822       62.35441       25.52475
C         11.11698       62.35640       24.30206
C         10.11629       63.48123       24.26189
O          9.89658       64.12236       25.27986
H         12.51347       63.16661       25.68412
H         10.57501       61.40070       24.13905
H         11.84271       62.48138       23.48514
N          9.43442       63.79471       23.12197
C          9.67799       63.18665       21.81223
C         11.07113       63.55139       21.32541
O         11.41484       64.72422       21.38181
C          8.64341       63.71268       20.77508
C          8.87363       63.13853       19.36047
O          7.33290       63.43382       21.20646
H          8.72413       64.54165       23.18729
H          9.54982       62.08286       21.87046
H          8.73761       64.81823       20.69301
H          7.13976       62.47787       21.01922
H          8.10402       63.53063       18.66327
H          9.86736       63.43453       18.96420
H          8.81461       62.02894       19.37341
N         11.87953       62.61541       20.74005
C         13.13020       62.96519       20.07138
C         12.86833       62.89108       18.57337
O         12.71400       61.78559       18.07115
C         14.29354       62.00739       20.47642
C         14.54466       61.94847       21.99981
C         15.59446       62.34470       19.71902
C         14.94032       63.27789       22.63354
H         11.53040       61.64901       20.64675
H         13.42203       63.99550       20.34128
H         14.00798       60.97302       20.17983
H         15.35440       61.21248       22.19969
H         13.63623       61.56901       22.50626
H         15.44673       62.25616       18.62250
H         15.93661       63.37709       19.93463
H         16.39785       61.63079       20.00036
H         14.13531       64.03237       22.52706
H         15.11865       63.10845       23.71336
H         15.87197       63.66756       22.17939
N         12.71110       63.99208       17.77922
C         12.68540       65.37122       18.26443
C         14.04798       65.90435       18.69301
O         15.06878       65.42460       18.22490
C         12.02991       66.32947       17.23905
C         12.77680       66.46961       15.93401
O         13.20664       67.55974       15.59389
O         12.93139       65.41717       15.10796
H         12.45679       63.80899       16.79883
H         12.00358       65.39612       19.13425
H         11.93991       67.33416       17.70922
H         10.99939       65.97545       17.01729
N         14.10229       66.95174       19.57279
C         15.32734       67.66711       19.94515
C         14.98458       68.75666       20.96973
O         14.06856       69.51116       20.67556
C         15.88417       68.39478       18.69021
C         17.19122       69.09566       18.97315
C         17.24985       70.49702       19.07890
C         18.36803       68.34543       19.13097
C         18.46620       71.13238       19.35027
C         19.58372       68.98568       19.38875
C         19.63235       70.37755       19.50217
H         13.20740       67.27421       19.97036
H         16.08028       66.95498       20.34242
H         15.12009       69.13157       18.35301
H         16.04641       67.70715       17.83499
H         16.35490       71.09667       18.96788
H         18.34309       67.26638       19.04490
H         18.50544       72.21028       19.44318
H         20.48803       68.40209       19.50115
H         20.57378       70.87096       19.70693
N         15.68606       68.99574       22.13096
C         16.91292       68.34108       22.57596
C         16.74320       66.94985       23.16704
O         15.67323       66.36580       23.07048
C         17.47501       69.30789       23.63598
C         16.90880       70.63976       23.19757
C         15.48409       70.21882       22.88694
H         17.63642       68.32705       21.73536
H         17.01197       69.09236       24.62016
H         18.58010       69.27836       23.75286
H         16.99908       71.44542       23.95615
H         17.41041       70.95926       22.25511
H         14.95511       69.97167       23.83605
H         14.92508       71.01539       22.35273
N         17.80053       66.37508       23.81013
C         17.83650       65.01955       24.34946
C         19.26843       64.66996       24.77070
O         19.50349       64.36436       25.93081
C         16.79244       64.76055       25.48188
C         16.85182       65.63091       26.75311
C         16.31214       67.01223       26.54217
O         16.99394       67.98586       26.81448
O         15.04480       67.18173       26.11519
H         18.66450       66.93338       23.88531
H         17.59333       64.30816       23.53584
H         16.94201       63.70623       25.80015
H         15.76058       64.81846       25.08257
H         17.87591       65.66761       27.17642
H         16.19636       65.15718       27.51609
N         20.30362       64.65742       23.87894
C         20.16717       64.93525       22.46211
H         19.83047       65.97393       22.28164
H         21.15181       64.82115       21.96210
H         19.45384       64.22242       21.99869
H         21.24392       64.40683       24.22252
Ca        11.13642       57.77834       25.39698
O          8.39969       58.43759       24.05565
H          8.37469       59.35630       24.42451
H          7.44859       58.17453       23.97554
O         11.34271       59.06443       22.87713
H         10.88978       59.06926       21.99764
H         12.30089       58.92636       22.67028
O          8.32838       55.69801       26.17720
H          7.82176       55.25275       25.45265
H          8.61165       54.95977       26.77342
O          8.73827       58.56477       27.49456
H          8.54452       59.35420       28.05950
H          8.26264       57.81963       27.94026

Ca 1.0



