%chk=apoCaM-CA-Ng.loop2.water4.frame696.chk
%nprocshared=20
%mem=10GB
%nosave
#b3lyp/svp scf=(tight,noincore,xqc) Test 
#IOP(5/87=12) Density=Current Pop=(MK,readradii) iop(6/33=2) iop(6/42=6)

apoCaM-CA-Ng.loop2.water4.frame696 

   -2  1 
C         76.07490      102.78337       -7.39679
C         76.20600      104.20027       -6.92458
O         75.67057      105.09506       -7.56333
H         77.08037      102.36945       -7.61632
H         75.59117      102.17037       -6.60621
H         75.45253      102.73008       -8.31557
N         76.88159      104.46933       -5.77339
C         77.00215      105.80494       -5.20577
C         76.10259      105.85242       -3.99232
O         76.26302      105.03512       -3.09464
C         78.47476      106.10739       -4.87813
C         78.65989      107.51267       -4.37693
O         78.36001      108.46193       -5.08413
O         79.17563      107.73199       -3.15281
H         77.27105      103.67688       -5.23784
H         76.65488      106.56625       -5.93888
H         79.08594      105.98714       -5.79909
H         78.84734      105.38413       -4.11977
N         75.06580      106.73752       -3.94332
C         74.01306      106.64508       -2.93513
C         73.23046      105.35076       -3.16754
O         73.38291      104.77392       -4.23720
C         73.07848      107.85923       -3.07536
H         74.98395      107.44688       -4.68871
H         74.48576      106.65083       -1.92829
H         73.65996      108.79422       -2.92854
H         72.62811      107.88043       -4.09133
H         72.25154      107.86102       -2.34359
N         72.37780      104.78741       -2.26402
C         72.13134      105.25100       -0.90098
C         73.17834      104.72062        0.06702
O         74.05637      103.97259       -0.34264
C         70.67163      104.92633       -0.49058
C         70.28923      103.46416       -0.47456
O         71.09474      102.58639       -0.73815
O         69.02280      103.12229       -0.17169
H         71.93608      103.90426       -2.55896
H         72.22226      106.34858       -0.85668
H         69.99848      105.43940       -1.21148
H         70.46430      105.34489        0.51557
N         73.16902      105.11409        1.37641
C         74.20159      104.73160        2.33155
C         75.54926      105.33338        1.97082
O         75.62666      106.06842        0.99583
H         72.40869      105.72218        1.71384
H         74.27808      103.62410        2.36333
H         73.91802      105.09610        3.34216
N         76.69186      105.05875        2.66566
C         76.78068      104.19478        3.84016
C         77.38020      102.84153        3.48701
O         77.64686      102.06314        4.39313
C         77.58568      104.88748        4.96907
C         79.07686      104.97739        4.70447
N         79.95681      104.35104        5.52369
O         79.49601      105.61762        3.75290
H         77.56821      105.44831        2.28887
H         75.77011      103.99828        4.25420
H         77.43470      104.29626        5.89892
H         77.17307      105.90171        5.15796
H         79.63290      103.80721        6.33721
H         80.97068      104.40612        5.34540
N         77.58697      102.47253        2.18826
C         78.16510      101.20131        1.79058
C         77.34059       99.97264        2.14064
O         77.78175       98.89070        1.77857
H         77.34950      103.12144        1.42434
H         79.17607      101.10641        2.23834
H         78.29121      101.21002        0.68619
N         76.16272      100.02286        2.83496
C         75.40244       98.81654        3.16754
C         74.81369       98.19871        1.90794
O         74.98330       98.75589        0.83491
C         74.32905       99.11523        4.24564
C         75.01569       99.49498        5.57821
O         73.45545      100.11948        3.78445
H         75.79299      100.92662        3.15303
H         76.09660       98.06723        3.60977
H         73.73734       98.19806        4.45086
H         73.18525      100.69902        4.54375
H         75.67779       98.66738        5.91462
H         75.62552      100.41588        5.47423
H         74.25623       99.66132        6.37099
N         74.14523       97.01102        1.96193
C         73.69995       96.29729        0.77007
C         72.18496       96.20583        0.74564
O         71.60040       95.59266        1.62684
C         74.37605       94.89014        0.73204
C         73.82338       94.01099       -0.42323
C         75.90595       95.05828        0.61552
C         74.38439       92.58575       -0.43125
H         73.99255       96.56140        2.87665
H         74.01484       96.83326       -0.14934
H         74.14748       94.37030        1.68970
H         74.02176       94.49197       -1.40507
H         72.72429       93.90519       -0.30288
H         76.30343       95.67680        1.44655
H         76.42815       94.08312        0.67508
H         76.16844       95.54811       -0.34748
H         74.19494       92.09082        0.54555
H         73.88333       91.99460       -1.22586
H         75.47150       92.57591       -0.64532
N         71.50052       96.75364       -0.30301
C         70.07341       96.57942       -0.53799
C         69.83191       95.77563       -1.81650
O         68.67559       95.51007       -2.11901
C         69.37788       97.94582       -0.64382
C         69.60186       98.78800        0.57776
O         70.13254       99.88101        0.47462
O         69.21008       98.34977        1.78896
H         72.02231       97.28349       -1.01085
H         69.61340       96.00992        0.29956
H         68.28391       97.79393       -0.76909
H         69.75736       98.48329       -1.53940
N         70.86329       95.30638       -2.58458
C         70.69184       94.40769       -3.71772
C         71.43660       94.94243       -4.94039
O         72.30855       94.24659       -5.44500
C         71.17864       93.02709       -3.20979
C         71.15023       91.86133       -4.16632
C         70.00919       91.55868       -4.92716
C         72.27365       91.01650       -4.24878
C         69.99883       90.43474       -5.76102
C         72.25128       89.88603       -5.06772
C         71.11553       89.59596       -5.82556
H         71.83778       95.49422       -2.31145
H         69.62046       94.30653       -3.99161
H         70.51415       92.75627       -2.36072
H         72.20564       93.13399       -2.79569
H         69.12993       92.18645       -4.87821
H         73.15924       91.21332       -3.65630
H         69.12020       90.20664       -6.34947
H         73.11214       89.23042       -5.10608
H         71.09963       88.71768       -6.45756
N         71.15572       96.16881       -5.49639
C         71.81417       96.71500       -6.68174
C         73.33160       96.82487       -6.61997
O         73.92588       97.15570       -7.63599
C         71.22756       98.12611       -6.80839
C         69.83234       97.93239       -6.26744
C         70.08468       97.03879       -5.05298
H         71.52534       96.06293       -7.53667
H         71.74707       98.80437       -6.09116
H         71.29676       98.57028       -7.82494
H         69.27204       98.86627       -6.04841
H         69.26770       97.34521       -7.02761
H         70.43770       97.61161       -4.17152
H         69.14314       96.49885       -4.82121
N         74.02736       96.58268       -5.47214
C         75.48027       96.57740       -5.41569
C         75.96581       95.42617       -6.26958
O         76.71741       95.65236       -7.20847
C         76.01722       96.42439       -3.96624
C         75.98535       97.71731       -3.11732
C         74.66320       98.21217       -2.60237
O         74.64825       99.33568       -1.86746
O         73.62665       97.60496       -2.77827
H         73.51198       96.34164       -4.62628
H         75.88940       97.53136       -5.81968
H         77.10271       96.19839       -4.06300
H         75.55000       95.56853       -3.43150
H         76.46604       98.53280       -3.69901
H         76.60617       97.53890       -2.21264
N         75.53519       94.15952       -6.02037
C         75.91709       93.03817       -6.84713
H         77.01667       92.89438       -6.80810
H         75.41676       92.11542       -6.48359
H         75.60024       93.21987       -7.89685
H         74.89163       93.98759       -5.23339
Ca        72.80765      100.11208       -0.81540
O         72.06724      102.11758        1.87934
H         72.95283      101.68436        1.79280
H         71.45488      101.38572        2.13936
O         74.02809      101.67735       -3.38196
H         74.34514      102.56510       -3.08117
H         73.38423      101.87081       -4.10819
O         75.88452      101.47505       -0.54117
H         76.38423      100.62231       -0.60000
H         76.33805      102.06649       -1.19178
O         71.03321      100.14520       -3.24909
H         71.60131       99.35529       -3.06833
H         71.27694      100.41504       -4.16889

Ca 1.0



