%chk=apoCaM-CA-Ng.loop1.water3.frame171.chk
%nprocshared=20
%mem=10GB
%nosave
#b3lyp/svp scf=(tight,noincore,xqc) Test 
#IOP(5/87=12) Density=Current Pop=(MK,readradii) iop(6/33=2) iop(6/42=6)

apoCaM-CA-Ng.loop1.water3.frame171 

   0  1 
C         82.16947       38.89567       29.45013
C         83.00371       38.93403       28.20456
O         82.96140       37.99215       27.42585
H         81.57501       37.95827       29.49832
H         82.82797       38.94984       30.34180
H         81.47126       39.75939       29.45881
N         83.78200       40.02081       27.93957
C         84.57130       40.14857       26.71690
C         85.76784       39.18962       26.64013
O         86.44154       39.20048       25.62075
C         84.99777       41.61712       26.48643
C         86.03156       42.13323       27.44568
O         85.79174       42.18207       28.76992
O         87.09347       42.54672       27.01109
H         83.73656       40.81103       28.60018
H         83.89113       39.91406       25.86986
H         84.09843       42.26852       26.54270
H         85.40423       41.70602       25.45429
N         86.07451       38.31721       27.64987
C         87.15966       37.33884       27.58743
C         86.58457       35.92772       27.58332
O         85.72241       35.66489       28.40935
C         88.07683       37.42499       28.83317
C         89.13809       38.53001       28.84581
C         88.61648       39.95246       29.03481
C         89.81655       40.90406       29.20254
N         89.39341       42.27591       29.46904
H         85.49435       38.30148       28.49830
H         87.77051       37.48499       26.68738
H         88.68236       36.49385       28.85731
H         87.47755       37.42837       29.76999
H         89.75454       38.46693       27.92236
H         89.80089       38.30329       29.71107
H         87.99129       39.99059       29.95306
H         88.00400       40.25138       28.16161
H         90.44652       40.88094       28.28482
H         90.43935       40.55798       30.05823
H         88.87248       42.65746       28.65225
H         88.79430       42.30951       30.32541
H         90.24149       42.86748       29.62463
N         87.06397       34.90410       26.80241
C         88.13378       34.94680       25.79916
C         89.42561       35.54993       26.35510
O         89.84844       36.60064       25.89585
C         87.65149       35.58371       24.48141
C         86.48235       34.83400       23.88715
O         85.99714       35.20847       22.69797
O         85.94682       33.90569       24.47332
H         86.65341       33.97139       26.97204
H         88.37038       33.90154       25.50293
H         88.48474       35.54291       23.74608
H         87.36315       36.64479       24.62142
N         90.12914       34.93754       27.34919
C         89.80813       33.59564       27.79505
C         90.59017       33.13525       29.00545
O         91.23543       33.94544       29.65895
H         90.95736       35.42079       27.73187
H         89.99364       32.92043       26.93640
H         88.74259       33.52408       28.08882
N         90.52825       31.83991       29.42769
C         89.90280       30.77846       28.63336
C         90.77013       30.46149       27.41189
O         91.86335       30.99601       27.29493
C         89.62965       29.51014       29.47668
C         90.86236       28.79260       29.96616
O         91.71523       29.38549       30.82225
O         91.07395       27.64318       29.61476
H         90.97003       31.60815       30.32723
H         88.90191       31.13332       28.30363
H         89.03622       28.80336       28.85551
H         88.99727       29.78238       30.34923
N         90.34347       29.58376       26.46018
C         91.15207       29.22465       25.30422
C         91.38361       30.39941       24.37973
O         92.52570       30.75001       24.11768
H         89.42384       29.13254       26.56651
H         90.61909       28.44159       24.72142
H         92.11814       28.79409       25.64635
N         90.31899       31.02752       23.81657
C         90.42036       32.11659       22.84705
C         91.09834       33.34057       23.44729
O         90.66816       33.80250       24.48766
C         89.00203       32.50854       22.34317
C         88.33406       31.37132       21.55988
O         89.09161       33.61996       21.49347
H         89.38215       30.68582       24.08089
H         91.00089       31.77692       21.96027
H         88.38025       32.76733       23.23152
H         88.20775       34.07118       21.50719
H         88.20726       30.46009       22.17657
H         87.32867       31.69749       21.21835
H         88.94213       31.11852       20.66465
N         92.10163       33.97674       22.77486
C         92.64340       35.28218       23.16783
C         92.17495       36.37587       22.19417
O         92.59288       37.51628       22.33855
C         94.19471       35.23798       23.30883
C         94.90646       34.91149       21.96945
C         94.58878       34.25769       24.42909
C         96.42951       35.04982       22.04186
H         92.41417       33.57755       21.87730
H         92.24366       35.59127       24.15959
H         94.52119       36.25315       23.62995
H         94.55822       35.62522       21.19259
H         94.65848       33.88268       21.63471
H         94.30654       33.21738       24.16282
H         95.67762       34.29326       24.63296
H         94.07648       34.53506       25.37532
H         96.87351       34.31999       22.74792
H         96.86507       34.85379       21.03942
H         96.70871       36.07963       22.35149
N         91.25551       36.10487       21.21937
C         90.70041       37.07776       20.28032
C         90.03188       38.21950       21.01954
O         89.29551       37.96811       21.96458
C         89.63260       36.41341       19.36572
C         90.20055       35.27485       18.50741
O         89.09107       37.38763       18.50842
H         90.89247       35.15315       21.15611
H         91.51053       37.47544       19.62956
H         88.82818       36.00317       20.02288
H         88.16364       37.10443       18.29411
H         90.60732       34.44672       19.12088
H         89.38909       34.84896       17.87989
H         91.00371       35.65676       17.84357
N         90.17772       39.50035       20.57187
C         89.51986       40.64213       21.19638
C         88.45898       41.21252       20.27438
O         88.48857       40.96146       19.07675
C         90.56510       41.74080       21.51410
C         91.66249       41.24339       22.45333
O         89.93733       42.85452       22.09969
H         90.74402       39.66971       19.72558
H         89.00885       40.32436       22.13167
H         91.04338       42.03479       20.54611
H         90.36312       43.66797       21.71987
H         91.22551       40.93873       23.42705
H         92.20201       40.38247       22.00628
H         92.39753       42.05842       22.62599
N         87.48613       42.01397       20.79465
C         86.50273       42.72760       19.98653
C         85.08132       42.22869       20.19489
O         84.21731       42.65935       19.44350
C         86.66779       44.25024       20.21090
C         86.42221       44.72419       21.66063
C         86.90976       46.16692       21.85371
C         86.75606       46.61854       23.31408
N         87.36170       47.93421       23.52081
H         87.46673       42.13166       21.81644
H         86.71271       42.54175       18.91024
H         86.00238       44.81837       19.52439
H         87.71892       44.48909       19.93565
H         87.00887       44.11468       22.37269
H         85.34513       44.62428       21.91819
H         86.35866       46.85908       21.18119
H         87.99131       46.20264       21.59355
H         87.26098       45.88878       23.98668
H         85.67718       46.65286       23.58245
H         87.23346       48.21849       24.51885
H         88.38753       47.88910       23.31771
H         86.91102       48.64480       22.90061
N         84.75885       41.29775       21.14265
C         83.44126       40.67584       21.22701
C         82.73372       41.12460       22.48277
O         83.25055       40.91906       23.57124
C         83.61387       39.14824       21.17848
C         82.28247       38.37312       21.12958
C         82.58634       36.91101       21.01871
O         83.25947       36.50016       20.08561
O         82.24332       36.06136       22.00083
H         85.47336       40.98003       21.81379
H         82.82279       40.96116       20.34873
H         84.20969       38.81067       22.05831
H         84.19609       38.90686       20.26114
H         81.68393       38.68610       20.24896
H         81.69791       38.56390       22.05552
N         81.52837       41.75402       22.39006
C         80.77926       42.23063       23.53285
H         79.79032       41.72691       23.55739
H         81.30073       42.03634       24.49303
H         80.62157       43.32482       23.43154
H         81.10936       41.90699       21.46028
Ca        83.89741       34.58682       22.22534
O         85.01428       33.29797       19.70122
H         84.61990       33.96239       19.08180
H         85.69128       32.82154       19.15844
O         84.61751       31.30187       22.92639
H         84.29208       31.30970       23.86158
H         85.52592       30.91240       22.98401
O         84.14017       36.69085       24.75945
H         83.16753       36.74704       24.93277
H         84.39686       37.60422       24.47782

Ca 1.0



