%chk=apoCaM-CA-Ng.loop2.water3.frame432.chk
%nprocshared=20
%mem=10GB
%nosave
#b3lyp/svp scf=(tight,noincore,xqc) Test 
#IOP(5/87=12) Density=Current Pop=(MK,readradii) iop(6/33=2) iop(6/42=6)

apoCaM-CA-Ng.loop2.water3.frame432 

   -2  1 
C        102.42064       76.41259       59.47922
C        103.42581       76.13719       58.40048
O        104.46272       75.55912       58.68887
H        101.46092       75.91177       59.23377
H        102.78046       76.03110       60.45953
H        102.25423       77.50678       59.56398
N        103.17198       76.50860       57.11400
C        104.11582       76.27368       56.02553
C        105.35402       77.13262       56.22615
O        105.23416       78.35063       56.23409
C        103.45353       76.58971       54.67107
C        104.36128       76.26289       53.51873
O        104.79962       75.00159       53.34113
O        104.69804       77.13524       52.73466
H        102.26266       76.95079       56.90657
H        104.37780       75.19141       56.02475
H        103.16035       77.66289       54.63745
H        102.53157       75.97779       54.56589
N        106.57382       76.55820       56.43538
C        107.77938       77.32893       56.74166
C        107.53093       78.19697       57.95609
O        107.81897       79.38407       57.91737
C        108.96033       76.39063       57.01043
H        106.63349       75.52801       56.43490
H        108.05103       77.97193       55.87463
H        108.74990       75.72382       57.87395
H        109.15851       75.76616       56.11367
H        109.87410       76.98394       57.23106
N        106.88882       77.66254       59.03185
C        106.43748       78.39690       60.20188
C        107.61561       78.75357       61.08417
O        107.84408       79.90926       61.41302
C        105.52084       79.56880       59.78607
C        104.78418       80.10205       60.96446
O        104.87933       81.27700       61.28081
O        103.99892       79.26793       61.67047
H        106.63726       76.66514       58.99546
H        105.81898       77.68661       60.79704
H        104.75607       79.19339       59.07107
H        106.09216       80.38069       59.28830
N        108.42519       77.73886       61.48471
C        109.62427       77.88631       62.27954
C        109.37159       78.16936       63.73862
O        110.03440       79.03895       64.28685
H        108.21034       76.78640       61.15054
H        110.31791       78.62297       61.81841
H        110.14076       76.90239       62.27147
N        108.50092       77.39957       64.45655
C        108.46843       77.38718       65.91957
C        108.59902       75.94239       66.40974
O        108.42398       75.02418       65.61825
C        107.17036       78.03483       66.44708
C        107.19775       78.21149       67.94943
N        106.31438       77.56794       68.74624
O        108.03980       78.94112       68.45236
H        107.89455       76.73827       63.94638
H        109.33249       77.97280       66.30403
H        106.30054       77.41794       66.13242
H        107.05007       79.04532       65.99890
H        105.61057       76.93568       68.34791
H        106.34622       77.68771       69.76970
N        108.91478       75.66438       67.70578
C        108.98496       74.31214       68.24354
C        108.10399       74.21986       69.46085
O        108.35646       74.95212       70.40819
H        109.13129       76.44401       68.34376
H        110.02962       74.09000       68.54635
H        108.68410       73.55436       67.48757
N        107.03499       73.37109       69.50448
C        106.12030       73.32221       70.64481
C        104.74741       73.87822       70.29010
O        103.95372       74.06037       71.20295
C        106.00806       71.88763       71.22990
C        105.32104       70.87864       70.28960
O        107.27035       71.41418       71.62947
H        106.84410       72.77401       68.68578
H        106.50730       73.97676       71.45609
H        105.37454       71.94161       72.14266
H        107.78859       71.19863       70.81030
H        105.89472       70.74228       69.35033
H        105.23856       69.89321       70.79587
H        104.29361       71.21642       70.03591
N        104.37892       74.13871       68.99843
C        103.06406       74.64033       68.62187
C        103.22673       75.86099       67.71963
O        103.87113       75.77007       66.68404
C        102.20891       73.45704       68.03593
C        101.05544       73.13564       69.02658
C        101.68852       73.70128       66.60739
C        100.24298       71.89047       68.67962
H        105.02082       73.91541       68.22640
H        102.54020       75.00024       69.53419
H        102.85377       72.55006       67.98281
H        100.36882       74.00868       69.09643
H        101.49447       72.95948       70.03439
H        102.53839       73.85060       65.91068
H        101.14037       72.81824       66.22528
H        101.01933       74.58690       66.57755
H         99.70482       72.01130       67.71913
H        100.90678       71.00191       68.63237
H         99.48196       71.72374       69.47148
N        102.68941       77.05524       68.09448
C        102.84419       78.30542       67.34975
C        102.34682       79.45354       68.22967
O        101.53150       80.25962       67.81121
C        102.10224       78.21094       65.98845
C        102.02652       79.54913       65.25483
O        101.22792       79.47854       64.11126
O        103.27217       80.05521       64.87790
H        102.17133       77.08089       68.98636
H        103.92748       78.49418       67.18230
H        101.05437       77.90139       66.19522
H        102.56450       77.44392       65.33200
N        102.78937       79.53704       69.51410
C        102.34936       80.53618       70.48302
C        100.82687       80.69600       70.49719
O        100.13552       79.68789       70.55204
C        102.87795       80.12380       71.88165
C        102.36214       80.98980       73.00451
C        103.14270       82.03075       73.52901
C        101.08479       80.74859       73.54490
C        102.64346       82.82844       74.56424
C        100.59384       81.54117       74.58254
C        101.37090       82.58380       75.09001
H        103.44560       78.80829       69.83754
H        102.81445       81.50151       70.20644
H        103.98937       80.16045       71.84704
H        102.60471       79.06981       72.11384
H        104.12772       82.23277       73.12792
H        100.46995       79.94102       73.16780
H        103.24290       83.63747       74.95896
H         99.61069       81.34536       74.99115
H        100.98667       83.19990       75.89185
N        100.22657       81.93639       70.51890
C         98.78945       82.13434       70.68806
C         97.92384       81.67503       69.53105
O         96.71155       81.63745       69.68852
C         98.64283       83.65537       70.83404
C         99.95713       84.03759       71.47523
C        100.93334       83.19644       70.66481
H         98.50521       81.61038       71.62806
H         98.64879       84.12874       69.82286
H         97.72759       83.98375       71.36992
H        100.18321       85.12493       71.47693
H         99.95161       83.66536       72.52475
H        101.09045       83.63580       69.65422
H        101.88682       83.14227       71.22553
N         98.46288       81.40586       68.31130
C         97.66307       81.03016       67.15176
C         97.01305       79.68670       67.39397
O         95.79327       79.60725       67.34609
C         98.53311       81.01512       65.87605
C         99.01594       82.43969       65.53810
C         99.92021       82.46722       64.34664
O        101.16578       82.96311       64.47281
O         99.53046       82.07149       63.25946
H         99.47679       81.51701       68.19264
H         96.86503       81.79045       66.98668
H         97.93137       80.63982       65.01859
H         99.39718       80.33312       66.02095
H         99.57192       82.87458       66.39444
H         98.13695       83.08766       65.33194
N         97.76850       78.59226       67.68981
C         97.20250       77.28765       67.96871
H         96.09435       77.27963       67.89197
H         97.60883       76.54739       67.24942
H         97.48006       76.98175       68.99918
H         98.79401       78.68655       67.74127
Ca       102.46598       80.98330       62.95971
O        101.05783       80.84739       60.22905
H        101.81954       80.72450       59.60844
H        100.60149       79.96872       60.23967
O        102.13274       83.99090       61.75120
H        102.05127       84.68645       62.45136
H        101.35054       84.13917       61.16259
O        104.78023       82.77910       63.96309
H        105.26307       83.53275       64.38562
H        105.38099       82.00056       64.08066

Ca 1.0



