%chk=apoCaM-CA-Ng.loop2.water4.frame1366.chk
%nprocshared=20
%mem=10GB
%nosave
#b3lyp/svp scf=(tight,noincore,xqc) Test 
#IOP(5/87=12) Density=Current Pop=(MK,readradii) iop(6/33=2) iop(6/42=6)

apoCaM-CA-Ng.loop2.water4.frame1366 

   -2  1 
C        -15.32469       50.47276       59.14846
C        -14.71549       49.30619       58.41662
O        -13.58682       48.95440       58.72600
H        -16.25353       50.15667       59.66791
H        -14.62043       50.87179       59.90896
H        -15.55465       51.28759       58.42909
N        -15.36545       48.64121       57.41749
C        -16.71581       48.95700       56.95741
C        -16.72075       49.52393       55.54181
O        -17.77024       50.00514       55.13676
C        -17.63838       47.72834       57.13879
C        -17.10485       46.52166       56.42150
O        -16.72091       45.54830       57.05063
O        -16.97743       46.54357       55.08705
H        -14.86392       47.86593       56.95564
H        -17.15073       49.76760       57.57467
H        -18.66904       47.95251       56.78882
H        -17.68933       47.50041       58.22651
N        -15.60562       49.55374       54.74555
C        -15.56088       50.29343       53.48540
C        -15.56128       49.41177       52.25212
O        -15.63991       49.96811       51.16475
C        -14.31705       51.19224       53.48084
H        -14.74024       49.08569       55.05121
H        -16.45991       50.94037       53.39571
H        -13.39621       50.56831       53.53125
H        -14.27224       51.80582       52.55611
H        -14.32831       51.87306       54.35755
N        -15.46737       48.05366       52.31583
C        -15.46904       47.21137       51.12347
C        -16.53026       46.11792       51.17370
O        -17.21278       45.95591       52.17386
C        -14.04047       46.67886       50.85455
C        -13.28001       46.08627       52.02169
O        -12.19822       46.56516       52.32490
O        -13.72050       45.00846       52.69826
H        -15.33968       47.60306       53.23005
H        -15.74094       47.80915       50.22590
H        -13.44209       47.54465       50.49211
H        -14.06428       45.94432       50.02877
N        -16.74153       45.35261       50.06422
C        -17.67342       44.23652       49.98414
C        -16.89290       43.00471       49.60700
O        -16.85410       42.06076       50.38244
H        -16.19707       45.57157       49.21810
H        -18.43996       44.44112       49.20750
H        -18.19488       44.07337       50.95341
N        -16.19501       42.97920       48.43453
C        -15.23428       41.93938       48.08718
C        -13.82848       42.50852       47.96539
O        -12.91325       41.71171       47.80270
C        -15.63568       41.24191       46.77466
C        -16.87428       40.40577       46.94809
N        -16.86492       39.33885       47.78322
O        -17.88360       40.67401       46.31486
H        -16.30595       43.76816       47.77922
H        -15.16975       41.18375       48.89953
H        -14.82914       40.55390       46.43918
H        -15.77913       42.01082       45.98268
H        -16.01305       39.08513       48.30591
H        -17.70352       38.75173       47.89712
N        -13.54924       43.84540       48.06643
C        -12.18468       44.34192       48.05820
C        -11.46601       44.05940       46.75250
O        -12.10462       43.63637       45.79882
H        -14.29736       44.53513       48.20324
H        -11.66040       43.83708       48.89467
H        -12.16827       45.43903       48.24321
N        -10.11856       44.22442       46.61579
C         -9.22210       44.68054       47.67390
C         -8.47019       45.90083       47.18588
O         -7.71034       45.79781       46.23330
C         -8.27612       43.53410       48.10108
C         -9.05948       42.40138       48.77490
O         -7.59348       43.00774       46.99020
H         -9.69552       43.97498       45.70730
H         -9.78730       44.98089       48.57790
H         -7.55458       43.91283       48.86343
H         -6.72197       43.47604       46.92735
H         -9.81400       41.96983       48.08272
H         -8.36668       41.59258       49.08774
H         -9.58013       42.78040       49.68068
N         -8.70070       47.11392       47.76455
C         -8.15165       48.37238       47.27475
C         -7.45147       49.10168       48.42806
O         -8.10382       49.30319       49.44365
C         -9.32406       49.23662       46.71832
C        -10.17908       48.50047       45.64749
C         -8.81499       50.57710       46.17096
C         -9.44140       48.11416       44.36079
H         -9.37309       47.16726       48.54573
H         -7.46245       48.19913       46.42975
H        -10.01744       49.46284       47.55962
H        -11.03303       49.15441       45.36605
H        -10.61305       47.57942       46.09271
H         -8.31917       51.14829       46.97823
H         -8.08457       50.42957       45.34836
H         -9.66354       51.18606       45.79540
H         -8.60205       47.42424       44.56325
H        -10.14848       47.59573       43.67931
H         -9.05491       49.00914       43.83370
N         -6.17590       49.60060       48.37308
C         -5.28629       49.50116       47.21703
C         -4.15027       50.52984       47.24748
O         -3.96069       51.22362       48.23627
C         -4.70797       48.06515       47.10121
C         -3.85907       47.63947       48.27801
O         -3.35185       46.52958       48.27785
O         -3.65111       48.45425       49.33153
H         -5.86110       50.14224       49.19257
H         -5.87238       49.76522       46.31213
H         -4.08862       47.99122       46.18281
H         -5.52667       47.32677       47.00667
N         -3.36556       50.68101       46.14101
C         -2.22754       51.59018       46.04346
C         -2.48649       52.62507       44.94971
O         -2.85985       52.21872       43.85787
C         -0.97430       50.77824       45.65572
C          0.23288       51.68069       45.57259
C          0.66668       52.17109       44.32882
C          0.90389       52.07740       46.74104
C          1.74723       53.05392       44.25793
C          1.99375       52.95027       46.66423
C          2.41165       53.44189       45.42423
H         -3.58709       50.11308       45.30898
H         -2.02709       52.07877       47.01718
H         -1.15934       50.29912       44.66832
H         -0.77734       49.95737       46.37911
H          0.15152       51.89179       43.41786
H          0.58019       51.71353       47.70847
H          2.06462       53.44247       43.29904
H          2.50882       53.25256       47.56650
H          3.24770       54.12653       45.36707
N         -2.24541       53.96584       45.11236
C         -1.72091       54.60680       46.30746
C         -2.76828       54.64758       47.39947
O         -2.44204       54.34860       48.53918
C         -1.26341       55.98026       45.79493
C         -2.24125       56.29054       44.68727
C         -2.41348       54.92064       44.02813
H         -0.80560       54.12210       46.70278
H         -1.12756       56.76258       46.57156
H         -0.28062       55.83043       45.28871
H         -3.18916       56.60429       45.16466
H         -1.94146       57.10171       43.99047
H         -3.41557       54.86569       43.54985
H         -1.61854       54.72594       43.27519
N         -4.06767       54.92208       47.10830
C         -5.12282       54.89154       48.10596
C         -4.97093       56.09702       49.02696
O         -5.10817       57.20378       48.52390
C         -6.49940       54.92040       47.40455
C         -6.70241       53.67466       46.51999
C         -7.98743       53.76566       45.75156
O         -9.16146       53.87599       46.40096
O         -7.97373       53.73356       44.53087
H         -4.32792       55.09256       46.12992
H         -5.07553       53.92470       48.63398
H         -6.57192       55.83660       46.77659
H         -7.30808       54.95034       48.16765
H         -6.70568       52.76932       47.16181
H         -5.87290       53.56121       45.79035
N         -4.68050       56.03191       50.36193
C         -4.41175       54.83956       51.14314
H         -3.39578       54.92418       51.58397
H         -5.14916       54.76741       51.96858
H         -4.43755       53.89773       50.57581
H         -4.61901       56.92346       50.87839
Ca       -15.47392       45.21300       54.08052
O        -14.42567       42.64824       51.57691
H        -14.87875       41.96464       52.12972
H        -13.46260       42.52908       51.76978
O        -13.46563       44.28795       56.30261
H        -13.29064       45.26264       56.30078
H        -13.20754       43.98989       57.21077
O        -17.92585       42.80224       53.96885
H        -18.11292       42.14314       53.25396
H        -18.57265       42.58127       54.68553
O        -14.91260       41.73073       54.93140
H        -14.39455       41.10327       54.36716
H        -14.83337       41.36127       55.84631

Ca 1.0



