%chk=apoCaM-CA-Ng.loop1.water3.frame1474.chk
%nprocshared=20
%mem=10GB
%nosave
#b3lyp/svp scf=(tight,noincore,xqc) Test 
#IOP(5/87=12) Density=Current Pop=(MK,readradii) iop(6/33=2) iop(6/42=6)

apoCaM-CA-Ng.loop1.water3.frame1474 

   0  1 
C         54.21388       54.18592       61.49766
C         54.49681       55.52118       62.12287
O         55.61594       55.73664       62.56551
H         53.16401       54.11684       61.14230
H         54.89382       54.02109       60.63723
H         54.37751       53.38594       62.25151
N         53.50957       56.45515       62.23077
C         53.68053       57.73286       62.91412
C         52.88580       57.67814       64.19919
O         51.97090       58.45932       64.42054
C         53.34513       58.92321       61.98623
C         51.92959       58.99947       61.46465
O         50.99608       58.08799       61.79978
O         51.61982       59.92060       60.72665
H         52.57340       56.21461       61.87480
H         54.74146       57.87635       63.21874
H         54.03320       58.88054       61.11425
H         53.55709       59.86392       62.54084
N         53.22318       56.72250       65.10592
C         52.53521       56.50031       66.36875
C         52.53617       57.76806       67.20929
O         51.44901       58.18274       67.58653
C         53.11617       55.26880       67.11256
C         52.93212       53.98774       66.26777
C         53.55090       52.74905       66.92050
C         53.38400       51.53128       65.99553
N         54.00503       50.33865       66.56750
H         54.02872       56.12348       64.87463
H         51.47194       56.24533       66.15287
H         52.57871       55.13413       68.07689
H         54.19095       55.41141       67.34040
H         53.41881       54.10645       65.27903
H         51.84664       53.81456       66.09731
H         53.06321       52.55267       67.89976
H         54.63562       52.92960       67.08701
H         53.85846       51.74571       65.01079
H         52.30147       51.33792       65.82419
H         53.87500       49.53832       65.90673
H         55.02960       50.49879       66.70401
H         53.55605       50.10207       67.48142
N         53.64299       58.51548       67.49978
C         55.02379       58.23919       67.10209
C         55.48634       59.26316       66.06416
O         54.73686       60.17935       65.75170
C         55.91131       58.25250       68.36955
C         55.89052       59.62003       68.99536
O         56.34991       60.64915       68.26848
O         55.37660       59.80509       70.08099
H         53.47494       59.39225       68.01725
H         55.11227       57.24969       66.62881
H         56.96086       57.98549       68.12311
H         55.52194       57.49619       69.08680
N         56.70586       59.15313       65.46117
C         57.14658       60.08735       64.43159
C         57.65455       61.40489       64.98913
O         57.81949       61.53533       66.18884
H         57.29908       58.33679       65.67436
H         56.31939       60.24487       63.70628
H         57.99798       59.64343       63.87180
N         57.93839       62.43297       64.13893
C         58.57625       63.70127       64.52874
C         59.68704       64.02900       63.52416
O         59.78804       63.31922       62.53191
C         57.49173       64.80364       64.57899
C         56.55836       64.50467       65.71545
O         55.40024       64.18727       65.49933
O         57.04412       64.48342       66.97441
H         57.67312       62.30902       63.14909
H         59.04600       63.60160       65.53160
H         56.94812       64.82690       63.60814
H         57.90556       65.80845       64.75928
N         60.58806       65.05092       63.65044
C         60.75487       65.97980       64.75779
C         61.23631       65.29991       66.01271
O         62.07237       64.41233       65.92714
H         61.26077       65.16969       62.87580
H         59.86737       66.61577       64.92768
H         61.56935       66.68175       64.47543
N         60.82333       65.74251       67.23266
C         61.28016       65.14837       68.48568
C         60.72257       63.74751       68.59333
O         59.53350       63.57671       68.37674
C         60.84549       65.99493       69.71097
C         61.46682       67.40135       69.68905
O         61.21118       65.35061       70.90855
H         60.17363       66.54272       67.26672
H         62.39330       65.12281       68.50744
H         59.73906       66.10066       69.70687
H         62.19770       65.23135       70.90489
H         62.57668       67.33481       69.70231
H         61.15939       67.96784       68.78701
H         61.13954       67.97069       70.58443
N         61.53447       62.70418       68.93633
C         61.12286       61.30384       69.02611
C         59.98842       61.12858       70.02739
O         58.86317       61.50855       69.73493
C         60.75985       60.74265       67.62008
C         61.95412       60.90921       66.64572
C         60.30590       59.27046       67.70056
C         61.60406       60.59431       65.19012
H         62.52191       62.90940       69.15183
H         62.00298       60.72913       69.39456
H         59.92219       61.34407       67.23275
H         62.80736       60.27741       66.97484
H         62.29162       61.96461       66.65654
H         59.42971       59.15996       68.37263
H         59.98024       58.89587       66.70996
H         61.12924       58.62931       68.08023
H         62.48909       60.79355       64.54989
H         61.32181       59.53199       65.05516
H         60.77121       61.24563       64.84840
N         60.21392       60.54038       71.23365
C         59.15968       60.31282       72.21530
C         59.33848       61.16018       73.46875
O         58.52758       61.01190       74.36764
C         59.04085       58.79901       72.53639
C         60.29073       58.20726       73.19819
O         58.77629       58.08346       71.35693
H         61.17642       60.25574       71.47018
H         58.17313       60.61704       71.80412
H         58.20001       58.64408       73.25328
H         57.82577       58.25245       71.12381
H         61.17206       58.26808       72.52797
H         60.51765       58.73214       74.14964
H         60.11427       57.13452       73.42726
N         60.34195       62.08673       73.59427
C         60.50273       62.93068       74.78162
C         59.27545       63.82826       74.93726
O         59.19797       64.84007       74.25731
C         61.81276       63.76729       74.65157
C         62.10054       64.65379       75.86814
O         62.91562       62.92820       74.40943
H         61.01585       62.19850       72.82497
H         60.59904       62.26129       75.66499
H         61.71227       64.43555       73.76699
H         62.99989       62.30842       75.18000
H         63.03208       65.23315       75.68751
H         61.27414       65.37377       76.03961
H         62.23836       64.03187       76.77705
N         58.23509       63.44925       75.74542
C         56.92876       64.11293       75.82430
C         56.22712       64.12533       74.47624
O         56.80456       64.56316       73.49311
C         56.96742       65.51529       76.44265
C         57.52602       65.48371       77.87574
C         57.13828       66.72402       78.69525
C         57.57559       68.05415       78.07146
N         57.18073       69.17254       78.92811
H         58.34233       62.58532       76.29759
H         56.29070       63.51424       76.51408
H         55.90765       65.85438       76.49137
H         57.53493       66.23427       75.81494
H         58.62835       65.34639       77.83944
H         57.09043       64.61991       78.42612
H         57.58807       66.62280       79.70698
H         56.03151       66.73669       78.81348
H         57.09044       68.17928       77.07874
H         58.67829       68.06054       77.93338
H         57.45711       70.07073       78.47085
H         56.14349       69.17155       79.06836
H         57.65896       69.10015       79.85542
N         54.95241       63.66361       74.35056
C         54.33624       63.48976       73.04365
C         55.08203       62.37715       72.31602
O         55.63493       62.66612       71.26582
C         52.81576       63.25231       73.14476
C         52.09072       64.51937       73.62695
C         50.61477       64.27786       73.75091
O         50.15338       63.35636       74.61803
O         49.82585       64.92307       73.07911
H         54.42785       63.39071       75.19570
H         54.44881       64.42859       72.45093
H         52.58631       62.42429       73.83630
H         52.42124       62.99909       72.13534
H         52.27331       65.34187       72.89848
H         52.47868       64.83781       74.61726
N         55.23174       61.10568       72.79812
C         54.64661       60.57806       74.01022
H         53.54574       60.53940       73.92457
H         54.98462       59.53034       74.15617
H         54.96759       61.15888       74.89510
H         55.82966       60.45571       72.27343
Ca        56.28212       62.89249       68.36645
O         55.82209       65.99136       69.44314
H         55.27473       66.02380       70.26763
H         55.16405       65.88667       68.71089
O         58.32686       63.96606       71.02162
H         58.93704       64.36364       71.68974
H         57.60296       64.63176       70.91819
O         53.26892       62.56155       67.51272
H         53.77487       61.77451       67.83431
H         53.51441       62.63790       66.55700

Ca 1.0



