%chk=apoCaM-CA-Ng.loop3.water7.frame1137.chk
%nprocshared=20
%mem=10GB
%nosave
#b3lyp/svp scf=(tight,noincore,xqc) Test 
#IOP(5/87=12) Density=Current Pop=(MK,readradii) iop(6/33=2) iop(6/42=6)

apoCaM-CA-Ng.loop3.water7.frame1137 

   0  1 
C         60.95001       72.27365       64.40430
C         59.45131       72.30134       64.47044
O         58.82566       72.30997       63.42091
H         61.31380       73.15750       63.83972
H         61.40238       72.28504       65.41752
H         61.27921       71.35124       63.87932
N         58.80172       72.29471       65.67138
C         57.34618       72.28577       65.78387
C         56.84953       73.46675       66.60493
O         56.07155       73.27348       67.52925
C         56.86845       70.92126       66.34152
C         57.33171       70.58755       67.74326
O         58.02124       71.35781       68.39374
O         56.96146       69.41673       68.29359
H         59.36436       72.26834       66.53380
H         56.88807       72.38961       64.77537
H         57.22917       70.12124       65.65968
H         55.75690       70.89940       66.33089
N         57.23631       74.73696       66.29302
C         56.73892       75.92945       66.97579
C         55.23684       76.03679       66.78187
O         54.49085       76.12688       67.74825
C         57.12812       75.96842       68.47449
C         58.63987       76.04941       68.71539
C         58.91658       76.08640       70.22971
C         60.40569       76.20230       70.58938
N         60.97518       77.49252       70.19540
H         57.89015       74.87534       65.50691
H         57.18697       76.82538       66.48970
H         56.71250       75.08741       69.00550
H         56.67390       76.87837       68.92669
H         59.02044       76.97096       68.22747
H         59.14740       75.16691       68.26871
H         58.53141       75.14109       70.67169
H         58.36924       76.93324       70.69987
H         60.97778       75.37081       70.12276
H         60.49656       76.10312       71.69432
H         61.96732       77.53772       70.52204
H         60.96626       77.60539       69.15772
H         60.44143       78.27246       70.64451
N         54.73327       76.03817       65.51953
C         53.31707       76.19164       65.21340
C         52.72739       74.96319       64.53183
O         51.56954       75.03707       64.14286
C         53.09940       77.49197       64.40121
C         53.79059       77.57448       63.06348
O         54.54692       76.56553       62.59279
O         53.66439       78.58621       62.39240
H         55.39854       75.94066       64.73939
H         52.72494       76.32477       66.14514
H         53.45681       78.34393       65.02020
H         52.00910       77.63360       64.23540
N         53.41769       73.78717       64.39756
C         52.83915       72.60807       63.76592
C         52.67237       71.47552       64.77056
O         52.01030       71.71872       65.76937
H         54.37700       73.70390       64.76404
H         53.44296       72.36415       62.87921
H         51.82306       72.82357       63.37520
N         53.14087       70.19749       64.60174
C         53.88291       69.70231       63.44613
C         55.00849       68.75241       63.86324
O         54.83553       68.02029       64.82770
C         52.92625       69.04875       62.42083
C         52.25086       67.78573       62.89831
N         52.44320       66.61606       62.24180
O         51.50877       67.81918       63.86784
H         52.86238       69.50488       65.31530
H         54.34540       70.54451       62.92046
H         53.49455       68.81739       61.49821
H         52.14509       69.78703       62.13737
H         53.05799       66.56528       61.41572
H         51.97269       65.75461       62.55556
N         56.17340       68.63973       63.15724
C         56.44777       69.43426       61.97460
C         57.70033       69.00891       61.25703
O         57.79909       67.85235       60.87479
H         56.86967       67.94218       63.46524
H         56.49633       70.50975       62.25065
H         55.63096       69.29157       61.24222
N         58.66360       69.92773       60.96522
C         59.80138       69.65626       60.08854
C         60.71564       70.87197       60.02316
O         60.22980       71.99147       59.93852
C         59.29457       69.29724       58.66778
C         60.40601       69.08500       57.66546
C         60.44437       69.85669       56.49224
C         61.40316       68.11753       57.88136
C         61.46274       69.66986       55.55488
C         62.42686       67.93848       56.94550
C         62.45926       68.71547       55.77838
O         63.43922       68.55436       54.86682
H         58.53929       70.88193       61.33150
H         60.38121       68.79848       60.49291
H         58.61700       70.10659       58.31659
H         58.70231       68.36126       58.70115
H         59.68276       70.60170       56.29841
H         61.39558       67.50759       58.77547
H         61.47628       70.26971       54.65376
H         63.19451       67.19739       57.12908
H         64.15085       67.90932       54.98460
N         62.07099       70.70266       60.01331
C         63.02935       71.81116       59.99116
C         62.78426       72.74953       58.81233
O         62.08032       72.36989       57.88422
C         64.48872       71.23260       59.98743
C         64.81098       70.54169       58.62856
C         65.54895       72.28779       60.34432
C         66.13830       69.78412       58.60728
H         62.42956       69.73681       60.04549
H         62.85251       72.38042       60.93054
H         64.52926       70.47462       60.80169
H         64.82580       71.29774       57.81276
H         64.01847       69.80472       58.38904
H         65.67070       73.03939       59.54060
H         65.27837       72.79050       61.29696
H         66.53651       71.80938       60.50286
H         66.99892       70.46485       58.76323
H         66.14008       68.99309       59.38593
H         66.26785       69.30360       57.61371
N         63.33032       73.99975       58.78940
C         63.16015       74.91907       57.67158
C         62.47178       76.20157       58.09946
O         62.25915       76.42461       59.28376
C         64.53293       75.22379       57.04882
O         65.36484       75.84772       57.98999
H         63.88728       74.31918       59.59581
H         62.52525       74.45500       56.88566
H         64.40724       75.88630       56.16392
H         64.99491       74.26662       56.71819
H         66.21384       76.05013       57.51781
N         62.09043       77.09211       57.14142
C         61.46604       78.38723       57.37316
C         62.41533       79.33619       58.07888
O         62.00638       80.03144       58.99955
C         60.10833       78.24339       58.08199
H         62.26106       76.84080       56.15516
H         61.27565       78.83574       56.37335
H         59.60716       79.23117       58.16420
H         59.45327       77.56276       57.50063
H         60.22509       77.83261       59.10668
N         63.72297       79.40964       57.68118
C         64.71220       80.33458       58.23008
C         64.94360       80.19476       59.73320
O         65.70453       80.99044       60.26872
C         64.32403       81.77345       57.86648
H         64.04241       78.78457       56.92561
H         65.68742       80.13913       57.72988
H         64.21272       81.85976       56.76413
H         63.37284       82.07550       58.34910
H         65.12200       82.47887       58.18301
N         64.34362       79.22494       60.48550
C         64.50539       79.12592       61.92992
C         65.96616       78.89916       62.25965
O         66.54088       79.69867       62.98510
C         63.59715       77.99738       62.47861
C         63.56471       77.84250       64.01040
C         62.98707       79.03736       64.72665
O         63.62865       80.22091       64.72184
O         61.94435       78.92715       65.35242
H         63.74276       78.52796       60.03036
H         64.16194       80.08359       62.37242
H         63.91930       77.02918       62.03720
H         62.55341       78.18617       62.14015
H         64.57806       77.62362       64.40618
H         62.91777       76.96349       64.22928
N         66.64066       77.85343       61.70380
C         68.05772       77.62309       61.89662
H         68.52465       78.37907       62.56235
H         68.21398       76.61664       62.33509
H         68.56842       77.66995       60.91104
H         66.13722       77.20458       61.08040
Ca        54.63950       77.22537       59.74683
O         56.95366       78.72327       60.99284
H         57.58880       78.84164       61.74278
H         57.03895       79.55290       60.45913
O         52.92908       74.75914       60.48905
H         53.39358       73.88608       60.44665
H         52.87457       74.96235       61.45564
O         52.09051       77.16734       58.13485
H         52.62827       77.48301       57.36553
H         51.86721       77.99152       58.63634
O         56.92083       75.21003       60.35437
H         56.97187       74.34147       59.88182
H         57.79441       75.64131       60.17756
O         56.61063       78.04840       57.65058
H         57.01388       77.15145       57.76632
H         56.15526       78.00424       56.77272
O         54.77948       74.84765       57.93965
H         53.95574       74.65591       57.42521
H         55.38013       74.08517       57.74586
O         54.00523       79.98484       58.80605
H         53.70314       80.32376       57.92639
H         54.88250       80.41919       58.95420

Ca 1.0



