%chk=apoCaM-CA-Ng.loop3.water2.frame782.chk
%nprocshared=20
%mem=10GB
%nosave
#b3lyp/svp scf=(tight,noincore,xqc) Test 
#IOP(5/87=12) Density=Current Pop=(MK,readradii) iop(6/33=2) iop(6/42=6)

apoCaM-CA-Ng.loop3.water2.frame782 

   0  1 
C         95.06665      -13.94993       -7.71557
C         94.13352      -14.77800       -8.54033
O         94.21584      -15.99476       -8.47787
H         95.67196      -13.29276       -8.37050
H         94.47258      -13.33082       -7.00993
H         95.74361      -14.60257       -7.12232
N         93.20056      -14.17966       -9.33344
C         92.17134      -14.92907      -10.04593
C         92.33646      -14.75177      -11.55722
O         93.11113      -13.89936      -11.97026
C         90.80359      -14.39010       -9.54747
C         89.66430      -15.36238       -9.57611
O         88.92097      -15.53822       -8.46878
O         89.38095      -15.97935      -10.58049
H         93.18600      -13.14910       -9.39127
H         92.26869      -16.00190       -9.79401
H         90.54939      -13.46213      -10.10442
H         90.89196      -14.10365       -8.47564
N         91.62848      -15.51097      -12.44373
C         91.62659      -15.29461      -13.88478
C         90.22298      -14.89685      -14.30578
O         90.04879      -13.78711      -14.79009
C         92.10004      -16.55378      -14.64294
C         93.59547      -16.83330      -14.42871
C         94.05700      -18.03852      -15.26316
C         95.57900      -18.22493      -15.17800
N         96.01775      -19.35445      -15.99855
H         91.03446      -16.26704      -12.09348
H         92.30140      -14.45427      -14.16311
H         91.94523      -16.38023      -15.73106
H         91.49925      -17.44059      -14.34307
H         93.80733      -17.01826      -13.35335
H         94.16472      -15.93565      -14.75571
H         93.78812      -17.87004      -16.32921
H         93.54141      -18.95777      -14.90733
H         95.88166      -18.39540      -14.12138
H         96.07999      -17.29984      -15.54238
H         97.05935      -19.43212      -15.94615
H         95.59301      -20.24252      -15.64591
H         95.74368      -19.20441      -16.99711
N         89.16779      -15.74655      -14.14354
C         87.79390      -15.38128      -14.48458
C         87.33242      -14.19135      -13.64324
O         86.96480      -13.17645      -14.21856
C         86.86504      -16.62709      -14.47187
C         86.88979      -17.51147      -13.25042
O         86.38455      -17.09927      -12.08442
O         87.31377      -18.65311      -13.33577
H         89.35268      -16.68618      -13.76306
H         87.76703      -15.04771      -15.54707
H         87.20944      -17.26432      -15.31652
H         85.81931      -16.32546      -14.69604
N         87.42331      -14.21045      -12.28679
C         87.16076      -13.06346      -11.42529
C         86.16527      -13.35458      -10.32291
O         85.91768      -12.45928       -9.52725
H         87.76863      -15.06271      -11.84981
H         86.79968      -12.18939      -12.00903
H         88.11696      -12.77370      -10.93899
N         85.54698      -14.56499      -10.21116
C         84.54545      -14.88131       -9.21161
C         85.00500      -16.09799       -8.33934
O         85.17839      -17.28468       -9.09370
C         83.19804      -15.12864       -9.94138
C         82.80219      -13.94258      -10.79254
N         82.64153      -14.07451      -12.13071
O         82.62358      -12.85329      -10.26743
H         85.74057      -15.29052      -10.89602
H         84.40639      -14.01769       -8.52293
H         82.36962      -15.30417       -9.22816
H         83.29133      -16.03244      -10.58033
H         82.78261      -14.98382      -12.59424
H         82.37244      -13.26420      -12.70859
N         84.10558      -16.25722       -7.16308
C         83.86350      -17.59505       -6.60529
C         85.09113      -18.18283       -5.97822
O         85.74979      -17.50436       -5.20184
H         83.16564      -15.83792       -7.33215
H         83.40797      -18.26864       -7.36464
H         83.12343      -17.48097       -5.78301
N         85.44691      -19.46829       -6.25284
C         86.68439      -20.07606       -5.76983
C         87.86916      -19.36215       -6.37609
O         87.68389      -18.35702       -7.02418
C         86.70354      -21.58427       -6.12992
C         85.74404      -22.35514       -5.25864
C         85.95811      -22.39838       -3.86813
C         84.65407      -23.04839       -5.80558
C         85.09444      -23.11184       -3.03890
C         83.78834      -23.76574       -4.97059
C         84.00452      -23.79898       -3.58700
O         83.16418      -24.49449       -2.79508
H         84.82231      -20.02797       -6.85429
H         86.77018      -19.96652       -4.66861
H         87.69720      -22.03816       -5.94361
H         86.48800      -21.71072       -7.21444
H         86.80014      -21.88294       -3.42246
H         84.47430      -23.03470       -6.87313
H         85.27753      -23.13082       -1.97163
H         82.94930      -24.29816       -5.39912
H         83.28525      -24.54054       -1.83545
N         89.13365      -19.79346       -6.16346
C         90.31915      -19.17967       -6.74100
C         90.36487      -19.42347       -8.29834
O         89.81674      -18.34737       -9.05631
C         90.49449      -17.69027       -6.29722
C         91.86030      -17.08583       -6.70143
C         90.24188      -17.50559       -4.78867
C         93.07226      -17.71004       -5.99785
H         89.28269      -20.60551       -5.54671
H         91.15110      -19.75558       -6.28455
H         89.72374      -17.08630       -6.80446
H         91.84982      -15.99940       -6.46251
H         91.98812      -17.17848       -7.79714
H         89.20588      -17.80197       -4.52362
H         90.93580      -18.12007       -4.18136
H         90.35338      -16.43561       -4.51173
H         93.17497      -18.78474       -6.24370
H         94.00012      -17.19882       -6.31942
H         93.00368      -17.58398       -4.89896
N         91.77362      -19.68456       -8.69770
C         91.98072      -20.07191      -10.11243
C         92.99523      -21.22701      -10.24772
O         94.00434      -21.06031      -10.92241
C         92.49294      -18.83125      -10.87020
O         93.70275      -18.40103      -10.29820
H         92.15488      -20.43224       -8.07507
H         91.02711      -20.41188      -10.56535
H         91.74049      -18.02541      -10.79252
H         92.65079      -19.08050      -11.94445
H         94.00440      -17.61366      -10.81942
N         92.80016      -22.42541       -9.61563
C         93.78846      -23.50978       -9.65353
C         93.18923      -24.81020      -10.18953
O         91.97182      -24.93204      -10.17099
C         94.32482      -23.72245       -8.23255
H         91.94885      -22.55516       -9.04639
H         94.64231      -23.21285      -10.27924
H         94.77671      -22.77748       -7.86190
H         93.50208      -24.01453       -7.54573
H         95.10291      -24.50751       -8.19014
N         93.94095      -25.87095      -10.63515
C         95.38754      -25.85552      -10.87167
C         95.93504      -27.26918      -11.10868
O         95.37506      -27.97795      -11.93288
C         95.72225      -25.04177      -12.13267
H         93.42976      -26.73753      -10.86699
H         95.89349      -25.39216      -10.01395
H         96.82436      -25.03512      -12.28325
H         95.24565      -25.49518      -13.02728
H         95.39395      -23.99092      -12.07993
N         97.07251      -27.74295      -10.50624
C         97.88606      -26.95960       -9.58387
C         97.23567      -26.85734       -8.20774
O         97.75480      -26.12508       -7.37718
C         99.32907      -27.51021       -9.43077
C        100.16884      -27.48305      -10.72515
C         99.82791      -28.58892      -11.68013
O         99.44577      -28.33540      -12.81095
O         99.98094      -29.87246      -11.29972
H         97.39869      -28.68241      -10.77836
H         98.01187      -25.93942      -10.00824
H         99.34012      -28.52568       -8.97815
H         99.85122      -26.82539       -8.72616
H        101.23768      -27.62187      -10.45560
H        100.07134      -26.48715      -11.21251
N         96.11338      -27.56233       -7.87898
C         95.50895      -27.46581       -6.56824
H         94.61780      -28.12671       -6.51239
H         96.23574      -27.78453       -5.79079
H         95.19009      -26.42029       -6.37369
H         95.67131      -28.19747       -8.55735
Ca        87.48252      -17.83933       -9.41067
O         85.36944      -20.13388       -9.57655
H         84.46055      -19.80052       -9.78346
H         85.32065      -21.10763       -9.74470
O         88.25436      -20.76237      -10.88096
H         88.98629      -21.41149      -11.02840
H         87.43217      -21.28705      -11.04646

Ca 1.0



