%chk=apoCaM-CA-Ng.loop1.water3.frame103.chk
%nprocshared=20
%mem=10GB
%nosave
#b3lyp/svp scf=(tight,noincore,xqc) Test 
#IOP(5/87=12) Density=Current Pop=(MK,readradii) iop(6/33=2) iop(6/42=6)

apoCaM-CA-Ng.loop1.water3.frame103 

   0  1 
C         60.92187       32.20356       92.97227
C         59.98573       31.29339       93.71212
O         60.11523       31.16688       94.92120
H         61.96460       31.84761       93.10201
H         60.69078       32.22772       91.88594
H         60.83150       33.23463       93.37290
N         59.00190       30.62996       93.04447
C         58.02907       29.76614       93.70810
C         58.62513       28.50762       94.33996
O         57.86627       27.76759       94.94099
C         56.85537       29.42688       92.75675
C         57.20892       28.57119       91.57144
O         56.57811       27.39691       91.39476
O         58.01332       28.95180       90.73644
H         58.90497       30.80777       92.03483
H         57.57378       30.35271       94.52107
H         56.40491       30.37393       92.38810
H         56.07418       28.90000       93.34155
N         59.94301       28.17807       94.26820
C         60.48732       26.94286       94.82842
C         61.53237       27.23908       95.89500
O         62.37107       28.09446       95.64320
C         61.06791       26.10086       93.67892
C         59.92562       25.56806       92.79621
C         60.43851       24.64612       91.68577
C         59.30647       23.90584       90.94715
N         58.33659       24.81302       90.33636
H         60.59829       28.79216       93.76440
H         59.69972       26.33144       95.28788
H         61.60290       25.22551       94.09852
H         61.79832       26.69387       93.08694
H         59.35864       26.41428       92.35336
H         59.24030       24.98918       93.44540
H         61.09115       23.86547       92.13403
H         61.04293       25.24229       90.96929
H         58.77577       23.23125       91.65408
H         59.76354       23.27158       90.15719
H         57.80277       25.30754       91.08279
H         58.81664       25.50010       89.71172
H         57.65333       24.25495       89.77517
N         61.63152       26.56493       97.09125
C         60.83694       25.41289       97.53723
C         60.89288       24.28528       96.50418
O         59.87435       23.95203       95.91699
C         59.41176       25.79339       98.01150
C         59.40176       26.64978       99.25056
O         60.54787       27.07447       99.81708
O         58.33648       26.92352       99.77871
H         62.40823       26.83509       97.71457
H         61.29371       24.99871       98.46250
H         58.90190       24.85726       98.31442
H         58.81192       26.28689       97.22661
N         62.04850       23.61761       96.22240
C         63.27370       23.86387       96.96369
C         64.41959       22.93798       96.60821
O         64.32332       22.18319       95.65424
H         62.01831       22.87382       95.50946
H         63.04248       23.67370       98.02953
H         63.60754       24.91193       96.82703
N         65.54368       22.88453       97.38650
C         65.71815       23.66389       98.61024
C         65.44074       22.79112       99.81703
O         65.29184       21.58364       99.66578
C         67.11481       24.31459       98.65599
C         68.22918       23.30158       98.72347
O         68.32959       22.46942       99.77866
O         69.05978       23.24205       97.83173
H         66.25699       22.17520       97.15306
H         64.98664       24.49521       98.65124
H         67.19394       24.97694       99.54432
H         67.23610       24.94767       97.74919
N         65.31062       23.34325      101.05296
C         65.03646       22.55247      102.24125
C         63.77294       21.72301      102.11272
O         63.72520       20.64150      102.68004
H         65.39605       24.36733      101.15895
H         64.94676       23.22331      103.12323
H         65.89603       21.87242      102.42341
N         62.70239       22.17756      101.40323
C         61.46157       21.42702      101.22463
C         61.10036       21.34568       99.74635
O         61.19235       22.34453       99.05087
C         60.32209       22.04763      102.07158
C         60.10918       23.55093      101.85772
O         60.54006       21.79296      103.43843
H         62.75830       23.11581      100.97798
H         61.55861       20.38476      101.60291
H         59.38260       21.51816      101.79884
H         61.39978       22.21411      103.69926
H         59.25489       23.89172      102.48036
H         61.00989       24.11480      102.17365
H         59.89424       23.78308      100.79659
N         60.60038       20.18881       99.22150
C         60.19856       20.03121       97.82194
C         58.67822       20.14964       97.72038
O         58.02199       19.22950       97.25393
C         60.78512       18.69847       97.22002
C         60.35116       17.41958       98.00839
C         62.32023       18.78939       97.13531
C         60.74895       16.10031       97.33944
H         60.42656       19.40890       99.86981
H         60.58387       20.87537       97.20686
H         60.40275       18.61473       96.17780
H         59.24978       17.38836       98.10989
H         60.78362       17.42041       99.02986
H         62.62112       19.68271       96.54887
H         62.76938       18.85627       98.14883
H         62.74763       17.90774       96.61504
H         60.31290       16.03395       96.32054
H         61.84915       15.98190       97.28275
H         60.35688       15.25306       97.94327
N         58.05130       21.28794       98.15656
C         56.59075       21.42868       98.22158
C         56.01838       22.59280       97.39528
O         54.80831       22.63763       97.22986
C         56.16093       21.51090       99.70487
C         56.66267       22.79030      100.39742
O         56.66419       20.38085      100.37400
H         58.63783       22.05047       98.52174
H         56.12497       20.51174       97.79965
H         55.04879       21.49478       99.74428
H         56.27791       20.37993      101.28775
H         56.32473       22.80501      101.45454
H         57.76669       22.83845      100.39853
H         56.26544       23.69496       99.89277
N         56.81775       23.54611       96.83493
C         56.40967       24.61094       95.90560
C         55.37906       25.61001       96.46612
O         54.77844       25.35546       97.49932
C         55.89055       23.98312       94.58013
C         56.83316       22.90067       94.03658
O         55.74359       24.98195       93.60352
H         57.81985       23.48310       97.02171
H         57.33241       25.18512       95.66879
H         54.90592       23.50195       94.78588
H         55.01312       24.69493       92.99593
H         56.43323       22.49684       93.08273
H         57.84207       23.31229       93.85775
H         56.92319       22.05358       94.74812
N         55.11419       26.77266       95.78498
C         53.98278       27.66796       96.04135
C         54.36631       29.04325       96.60860
O         53.45453       29.79073       96.93437
C         53.24172       27.82200       94.67792
C         51.98810       28.70969       94.62807
C         50.84502       28.15670       95.47773
C         49.61901       29.07241       95.39115
N         48.50260       28.51481       96.15086
H         55.68317       26.99100       94.95989
H         53.31151       27.19873       96.79116
H         52.96922       26.81110       94.30269
H         53.95577       28.26083       93.94926
H         51.64715       28.75483       93.56988
H         52.23148       29.75141       94.91843
H         51.15877       28.07848       96.53952
H         50.58088       27.14387       95.10218
H         49.31210       29.19392       94.32815
H         49.87996       30.07585       95.79730
H         47.68866       29.16794       96.09172
H         48.22584       27.59036       95.74694
H         48.77319       28.39550       97.15399
N         55.65169       29.45778       96.79942
C         55.96090       30.78421       97.34744
C         55.49475       31.89265       96.41631
O         55.94064       31.95563       95.27989
C         57.47714       30.96487       97.60064
C         58.03276       30.03821       98.69074
C         57.53225       30.34701      100.08155
O         56.77306       31.27826      100.29993
O         57.96346       29.60246      101.11279
H         56.42071       28.81803       96.57136
H         55.43464       30.89576       98.31686
H         57.69372       32.01406       97.90354
H         58.02890       30.77293       96.66034
H         59.13640       30.14935       98.71051
H         57.79840       28.98845       98.42938
N         54.61683       32.83669       96.85391
C         54.20592       33.94642       96.02056
H         53.49979       34.59837       96.57727
H         55.09354       34.55303       95.73703
H         53.70491       33.57310       95.10291
H         54.24410       32.78443       97.81377
Ca        60.51908       28.32510      101.69937
O         57.50014       27.56117      103.21805
H         57.64249       28.40410      103.71821
H         56.73512       27.75400      102.61935
O         61.72626       29.62385       99.07512
H         62.42685       29.14065       99.58108
H         61.98087       29.50990       98.12563
O         60.96245       26.52891      104.10269
H         61.42019       26.16319      103.30466
H         60.05454       26.13512      104.07102

Ca 1.0



