%chk=apoCaM-CA-Ng.loop1.water3.frame491.chk
%nprocshared=20
%mem=10GB
%nosave
#b3lyp/svp scf=(tight,noincore,xqc) Test 
#IOP(5/87=12) Density=Current Pop=(MK,readradii) iop(6/33=2) iop(6/42=6)

apoCaM-CA-Ng.loop1.water3.frame491 

   0  1 
C         64.58826       39.41970       67.82737
C         65.55385       40.48418       67.38483
O         65.15606       41.63164       67.24650
H         63.76332       39.32746       67.09239
H         65.08706       38.43060       67.92208
H         64.16894       39.68731       68.82033
N         66.86050       40.17285       67.17330
C         67.88266       41.15793       66.83326
C         67.85626       41.57878       65.35541
O         68.78027       42.25290       64.95351
C         69.28735       40.60145       67.19460
C         69.44377       40.31429       68.67010
O         68.76694       39.45861       69.21755
O         70.35524       40.99416       69.39285
H         67.15538       39.19902       67.34445
H         67.76093       42.06138       67.47025
H         70.05058       41.36738       66.93793
H         69.50774       39.68223       66.61054
N         66.88535       41.22555       64.46793
C         66.97736       41.52505       63.02961
C         65.81579       42.36607       62.51702
O         64.70117       42.11302       62.95250
C         66.98703       40.17941       62.28763
C         68.36757       39.51631       62.36742
C         68.32037       38.10658       61.76995
C         69.71726       37.52476       61.50599
N         70.35205       38.15439       60.34245
H         66.07967       40.67314       64.79267
H         67.90556       42.06276       62.77881
H         66.76949       40.32594       61.20934
H         66.18586       39.52588       62.69868
H         68.73893       39.44919       63.41374
H         69.06508       40.16426       61.80382
H         67.75624       38.09233       60.81240
H         67.77761       37.46520       62.49870
H         69.59899       36.44168       61.28551
H         70.36204       37.62498       62.40740
H         70.52297       39.17218       60.49734
H         71.26979       37.68987       60.15890
H         69.74626       38.02835       59.49777
N         65.92488       43.29662       61.49941
C         67.13401       43.74975       60.77804
C         67.92935       42.60204       60.17957
O         69.04750       42.35988       60.61072
C         67.97530       44.72088       61.63646
C         67.21965       45.99630       61.89031
O         65.99703       46.17955       61.35286
O         67.68419       46.84304       62.63653
H         65.03935       43.71857       61.17734
H         66.82776       44.36996       59.90647
H         68.91108       44.99745       61.10883
H         68.24394       44.25160       62.60265
N         67.44269       41.84616       59.15476
C         66.22312       42.19268       58.43976
C         65.78398       41.13845       57.43786
O         66.32239       40.04125       57.43830
H         68.00954       41.04580       58.83672
H         66.40788       43.15754       57.92299
H         65.37955       42.31637       59.14951
N         64.74841       41.36426       56.57572
C         64.12159       42.67347       56.40896
C         65.04578       43.61714       55.64948
O         66.02039       43.16581       55.06179
C         62.75701       42.55989       55.68629
C         62.80305       41.99359       54.28485
O         63.96325       41.62595       53.70614
O         61.76216       41.86254       53.66157
H         64.41623       40.57231       56.00444
H         63.90690       43.08968       57.41765
H         62.28964       43.56748       55.63513
H         62.09474       41.91066       56.29871
N         64.78962       44.95348       55.62019
C         65.56991       45.90294       54.84373
C         67.04311       45.85859       55.16715
O         67.83808       45.65755       54.25888
H         63.99356       45.31973       56.16437
H         65.19110       46.92932       55.04202
H         65.42824       45.69142       53.76151
N         67.48663       46.05822       56.43750
C         68.91167       46.09346       56.76882
C         69.57676       44.73798       56.48572
O         68.88010       43.75023       56.29679
C         69.10404       46.52217       58.25473
C         68.50937       47.90771       58.55236
O         70.46565       46.57155       58.57642
H         66.78172       46.21843       57.17239
H         69.39019       46.85848       56.11771
H         68.59491       45.75995       58.88668
H         70.52951       46.51199       59.56587
H         68.66366       48.15462       59.62510
H         69.01804       48.67964       57.93696
H         67.42049       47.95365       58.35887
N         70.93905       44.63414       56.44905
C         71.67077       43.37204       56.27699
C         72.43991       43.00769       57.54890
O         73.06150       41.95399       57.58172
C         72.67475       43.44975       55.07620
C         73.76610       44.54046       55.29688
C         71.93177       43.65272       53.74648
C         74.91388       44.49031       54.28675
H         71.48637       45.49549       56.58549
H         70.95757       42.53851       56.09261
H         73.18731       42.46275       55.01663
H         74.23523       44.39404       56.29095
H         73.31661       45.55511       55.27500
H         71.41183       44.63330       53.72811
H         72.63404       43.60502       52.88868
H         71.18590       42.84358       53.59975
H         75.41084       43.49727       54.31944
H         74.56567       44.69871       53.25626
H         75.66636       45.26390       54.55299
N         72.49076       43.86445       58.60550
C         73.30497       43.69496       59.79342
C         72.43068       43.80347       61.03569
O         71.63190       44.72325       61.13938
C         74.45361       44.73721       59.78507
C         74.00148       46.19639       59.61670
O         75.33084       44.41917       58.73363
H         71.97278       44.74130       58.56116
H         73.81023       42.70296       59.79816
H         74.98999       44.63143       60.75773
H         76.23845       44.71532       59.00612
H         73.52009       46.35253       58.62737
H         73.30166       46.49991       60.41936
H         74.88778       46.86348       59.65553
N         72.55371       42.88409       62.03198
C         71.74419       42.86386       63.25717
C         71.80872       44.17720       64.06121
O         72.53176       45.08906       63.68634
C         72.13888       41.63506       64.13459
C         73.61049       41.64592       64.59807
O         71.82986       40.43154       63.47048
H         73.26041       42.14969       61.89038
H         70.68044       42.73701       62.95847
H         71.52354       41.64004       65.05355
H         72.52334       40.25449       62.78407
H         74.31750       41.57881       63.74612
H         73.84080       42.57237       65.15961
H         73.79925       40.77487       65.26023
N         71.03988       44.33015       65.18671
C         70.97403       45.53126       66.01204
C         69.53693       46.07326       66.18273
O         69.38806       47.05685       66.89582
C         71.48544       45.19359       67.43249
C         72.85991       44.51332       67.47575
C         73.29890       44.32562       68.93466
C         74.63011       43.57419       69.04358
N         75.05677       43.48454       70.44072
H         70.49511       43.53855       65.52074
H         71.61425       46.32894       65.57674
H         70.76018       44.50612       67.92622
H         71.52896       46.13672       68.02058
H         73.61169       45.13163       66.93952
H         72.78627       43.51960       66.98584
H         72.52339       43.75280       69.49052
H         73.40477       45.32844       69.40334
H         75.41234       44.10505       68.45786
H         74.51027       42.54931       68.62557
H         75.95219       42.94796       70.49509
H         75.21580       44.44426       70.82614
H         74.33109       42.99398       71.01261
N         68.43053       45.47393       65.63711
C         67.05507       45.86708       65.98444
C         66.81668       45.65200       67.46590
O         66.99529       44.54153       67.94661
C         66.00981       45.04962       65.17557
C         64.53665       45.15801       65.65725
C         63.96845       46.55047       65.84900
O         63.58722       46.88662       66.95856
O         63.81533       47.41695       64.82903
H         68.55819       44.68085       64.99820
H         66.89300       46.93772       65.72960
H         66.26629       43.96967       65.22723
H         66.07712       45.34712       64.11825
H         64.46902       44.63338       66.63554
H         63.89148       44.59516       64.94859
N         66.35087       46.67620       68.23403
C         66.01656       46.53819       69.63582
H         64.93385       46.74787       69.77171
H         66.22326       45.51877       70.02307
H         66.60128       47.27113       70.22769
H         66.18363       47.59636       67.79960
Ca        64.45496       46.89975       62.76549
O         64.91141       49.05085       59.98039
H         65.67945       49.56921       60.32930
H         64.96818       49.15463       58.99731
O         65.26825       49.72241       63.31004
H         65.94489       49.03148       63.52303
H         65.79345       50.47642       62.94313
O         62.18218       49.99439       61.43422
H         62.30453       50.61535       60.67256
H         61.53391       50.45257       62.02609

Ca 1.0



