%chk=apoCaM-CA-Ng.loop4.water6.frame895.chk
%nprocshared=20
%mem=10GB
%nosave
#b3lyp/svp scf=(tight,noincore,xqc) Test 
#IOP(5/87=12) Density=Current Pop=(MK,readradii) iop(6/33=2) iop(6/42=6)

apoCaM-CA-Ng.loop4.water6.frame895 

   -3  1 
C          6.86207        5.41029        9.77324
C          6.62637        5.43553        8.29365
O          6.84796        4.42670        7.64188
H          7.61147        6.17951       10.04992
H          5.91045        5.61857       10.30435
H          7.23818        4.41402       10.09235
N          6.15139        6.56359        7.69151
C          5.88171        6.66365        6.26171
C          4.85294        5.61318        5.87344
O          5.16917        4.68370        5.14551
C          7.19808        6.57533        5.45205
C          7.02075        6.90453        3.99183
O          5.82303        7.28272        3.50382
O          7.98452        6.86510        3.24445
H          5.95522        7.38933        8.27765
H          5.45665        7.67198        6.05646
H          7.64917        5.56520        5.54788
H          7.91039        7.32194        5.85899
N          3.58643        5.70768        6.36013
C          2.54223        4.71718        6.12369
C          1.46221        5.34183        5.24419
O          0.96736        6.39993        5.60685
C          1.96334        4.24116        7.49572
C          3.07303        3.52978        8.31776
C          0.74341        3.31527        7.30080
C          2.63366        3.08248        9.71453
H          3.34603        6.53135        6.93421
H          2.96446        3.82826        5.61955
H          1.61274        5.13548        8.05881
H          3.92704        4.22556        8.45508
H          3.43911        2.63940        7.76052
H          0.28263        3.05051        8.27303
H         -0.05461        3.82646        6.72328
H          1.03243        2.38308        6.77405
H          3.49716        2.62383       10.24115
H          2.27675        3.95190       10.30529
H          1.83616        2.31371        9.66549
N          0.98001        4.74879        4.10485
C          1.38046        3.42510        3.62501
C          2.72535        3.40911        2.91039
O          3.21884        2.31853        2.65521
C          0.27195        2.77467        2.76777
C         -0.05909        3.47548        1.47624
O          0.52835        4.48738        1.12807
O         -1.02921        2.97090        0.69084
H          0.19324        5.22062        3.63270
H          1.45258        2.75474        4.50554
H         -0.65341        2.72595        3.38265
H          0.57037        1.73054        2.52772
N          3.39434        4.55043        2.57090
C          4.73584        4.51314        2.00960
C          4.84056        3.85102        0.65816
O          3.84054        3.61423       -0.00511
H          2.98253        5.47281        2.77362
H          5.38370        3.95994        2.72073
H          5.14094        5.53829        1.90039
N          6.07974        3.49537        0.21800
C          6.35445        2.85199       -1.05938
C          6.76820        1.39725       -0.88446
O          7.03397        0.75388       -1.89109
C          7.42533        3.64968       -1.84968
C          8.77472        3.74972       -1.17353
O          8.92199        4.42823       -0.01947
O          9.75904        3.25900       -1.70210
H          6.86876        3.65118        0.86011
H          5.43437        2.83355       -1.68371
H          7.05557        4.67859       -2.04338
H          7.56273        3.15553       -2.83756
N          6.81061        0.78540        0.33846
C          7.17639       -0.61405        0.49059
C          8.63475       -0.89435        0.17861
O          9.00485       -2.05912        0.18300
H          6.53610        1.29742        1.18874
H          6.52136       -1.22477       -0.16913
H          6.99384       -0.93645        1.53891
N          9.53023        0.11091       -0.06284
C         10.94320       -0.09739       -0.36177
C         11.71678       -0.72421        0.79300
O         12.86797       -1.08663        0.58382
C         11.14644       -0.83071       -1.71048
C         10.50360       -0.03583       -2.86558
C         10.88710       -0.52339       -4.24090
N         10.41813        0.12597       -5.33204
O         11.63554       -1.47971       -4.38232
H          9.21865        1.08933       -0.02561
H         11.41745        0.89943       -0.50239
H         10.75224       -1.86948       -1.68998
H         12.24157       -0.88059       -1.89922
H         10.83879        1.02101       -2.80318
H          9.39844       -0.06495       -2.76387
H          9.79305        0.93969       -5.23007
H         10.68698       -0.17556       -6.28030
N         11.20605       -0.77903        2.06094
C         11.96889       -1.25924        3.21232
C         12.26355       -0.14765        4.21896
O         13.01763       -0.40806        5.14335
C         11.23899       -2.43718        3.92236
C          9.85173       -2.03699        4.46337
C         11.10896       -3.65078        2.99543
H         10.25793       -0.41752        2.23167
H         12.96546       -1.62528        2.87908
H         11.85971       -2.75457        4.79001
H          9.15570       -1.76537        3.64271
H          9.40114       -2.88431        5.02186
H          9.93283       -1.17806        5.16190
H         10.48857       -3.40961        2.10752
H         12.11390       -3.97970        2.65610
H         10.63593       -4.49584        3.54077
N         11.68171        1.08907        4.13923
C         11.88777        2.13547        5.14047
C         12.30330        3.43593        4.43488
O         12.51760        3.40963        3.23301
C         10.56847        2.25892        5.94322
C         10.68824        2.85136        7.33451
N          9.57785        2.99774        8.08988
O         11.77368        3.15449        7.80702
H         11.00456        1.29135        3.39319
H         12.68286        1.83096        5.85359
H         10.17676        1.23415        6.12686
H          9.81566        2.80416        5.33336
H          8.65950        2.71469        7.72228
H          9.63741        3.38555        9.04328
N         12.40650        4.61792        5.11327
C         12.80324        5.88221        4.49452
C         13.92823        6.51411        5.29782
O         14.28383        5.98132        6.33877
C         11.59995        6.85359        4.37930
C         11.07941        7.39476        5.69736
C         10.43175        6.56778        6.63126
C         11.23075        8.76177        5.99441
C          9.97178        7.08893        7.84240
C         10.76044        9.28281        7.20224
C         10.13573        8.44869        8.13311
O          9.69266        8.96318        9.29691
H         12.19559        4.63823        6.10825
H         13.16570        5.69611        3.46102
H         10.77091        6.37024        3.81916
H         11.93995        7.70873        3.75546
H         10.26193        5.52297        6.42754
H         11.71776        9.42854        5.29347
H          9.48207        6.43413        8.54919
H         10.88505       10.33658        7.41300
H          9.25515        8.41991        9.96762
N         14.53162        7.66660        4.87573
C         15.56801        8.32409        5.66184
C         15.18367        9.77778        5.90880
O         15.27337       10.55331        4.96736
C         16.92386        8.26061        4.92702
C         17.36490        6.81825        4.64064
C         18.69097        6.79382        3.93685
O         19.74270        6.17050        4.50085
O         18.82000        7.32793        2.84630
H         14.25666        8.08252        3.97455
H         15.70086        7.79608        6.61822
H         17.69643        8.75823        5.55515
H         16.84887        8.80681        3.96025
H         16.61678        6.31120        3.99376
H         17.44319        6.25884        5.59775
N         14.71190       10.26628        7.09718
C         14.33730        9.47578        8.27069
C         15.48967        8.75045        8.94131
O         16.64362        8.96103        8.59164
C         13.60572       10.37563        9.30336
C         14.50658       11.46134        9.92518
C         13.71588       12.33985       10.84999
O         13.11155       11.81420       11.93235
O         13.62100       13.53637       10.62670
H         14.49017       11.27427        7.10795
H         13.61113        8.70923        7.92094
H         13.18432        9.74968       10.11890
H         12.75253       10.86895        8.79160
H         14.95479       12.09387        9.13062
H         15.33341       10.99258       10.49984
N         15.22047        7.85010        9.92761
C         16.25206        7.09278       10.59808
H         16.95450        7.77920       11.11451
H         15.79126        6.41874       11.35253
H         16.80314        6.47147        9.86082
H         14.24142        7.67830       10.20405
Ca        10.16129       12.60830       12.74098
O         10.48376        9.56863       12.54852
H         10.79873        8.91830       13.22522
H         11.12239        9.47616       11.79761
O         12.06671       12.02386       15.11555
H         12.11530       12.94014       15.48747
H         12.07843       11.43289       15.90962
O         10.33015       11.89917        9.78098
H          9.52064       11.52156       10.20819
H          9.98410       12.59260        9.16540
O         10.32061       15.34451       11.22753
H         10.25135       15.77240       12.11784
H         10.18981       16.08620       10.58509
O          9.39528       14.63989       14.78256
H          8.88045       15.48503       14.80074
H         10.31106       14.89979       15.05440
O         12.61951       14.79540       13.39652
H         13.53996       14.50086       13.18308
H         12.69949       15.77052       13.54723

Ca 1.0



