%chk=apoCaM-CA-Ng.loop3.water3.frame719.chk
%nprocshared=20
%mem=10GB
%nosave
#b3lyp/svp scf=(tight,noincore,xqc) Test 
#IOP(5/87=12) Density=Current Pop=(MK,readradii) iop(6/33=2) iop(6/42=6)

apoCaM-CA-Ng.loop3.water3.frame719 

   0  1 
C         76.38835       93.52328      -23.34667
C         76.80983       92.78988      -24.58249
O         77.39605       93.38959      -25.47301
H         75.28885       93.45178      -23.22277
H         76.88454       93.05963      -22.46586
H         76.68822       94.59083      -23.39713
N         76.58885       91.45233      -24.67163
C         77.11376       90.64551      -25.75936
C         76.30711       90.84140      -27.04859
O         75.10545       90.61261      -27.04419
C         77.17169       89.16885      -25.31210
C         78.04633       88.34585      -26.20733
O         78.19424       87.15337      -25.99789
O         78.63394       88.91043      -27.27218
H         76.14008       90.98142      -23.86970
H         78.16960       90.95147      -25.90914
H         76.14371       88.75020      -25.26752
H         77.61184       89.09921      -24.29754
N         76.92257       91.26218      -28.19256
C         76.25564       91.52313      -29.46782
C         75.56324       90.27187      -29.99048
O         74.36176       90.32770      -30.20788
C         77.28280       92.08905      -30.48662
C         76.64305       92.64638      -31.77418
C         77.65808       93.36974      -32.68685
C         78.70824       92.43675      -33.31218
N         79.62508       93.18472      -34.17556
H         77.92968       91.42840      -28.14867
H         75.49680       92.32066      -29.29834
H         78.03539       91.31406      -30.72681
H         77.80628       92.93994      -29.99659
H         75.88555       93.40407      -31.47562
H         76.12527       91.84364      -32.34143
H         78.16707       94.17236      -32.10815
H         77.09490       93.85406      -33.51459
H         78.19132       91.65815      -33.91556
H         79.29961       91.93542      -32.51930
H         80.15119       93.89333      -33.61372
H         80.31065       92.52218      -34.60549
H         79.09735       93.66502      -34.94041
N         76.24846       89.09982      -30.17110
C         75.60581       87.86011      -30.61350
C         75.46504       86.81734      -29.51326
O         74.95907       85.73963      -29.80549
C         76.23423       87.28822      -31.90952
C         77.62926       86.68478      -31.98815
O         77.92986       86.15496      -33.04536
O         78.56362       86.66052      -31.01390
H         77.24803       89.08525      -29.94891
H         74.55321       88.07936      -30.89901
H         76.16844       88.07236      -32.69317
H         75.55500       86.46362      -32.22369
N         75.79296       87.07136      -28.21436
C         75.55729       86.10724      -27.14669
C         76.41892       84.86013      -27.23567
O         76.20142       83.96277      -26.43536
H         76.14661       88.00098      -27.95622
H         74.48491       85.81418      -27.17067
H         75.73800       86.57728      -26.15942
N         77.39957       84.72058      -28.17557
C         78.16192       83.49844      -28.37732
C         79.65664       83.75051      -28.21911
O         80.19806       84.64245      -28.85645
C         77.83346       82.96444      -29.78226
C         78.49431       81.63654      -30.05297
N         79.34162       81.48656      -31.09640
O         78.25301       80.68296      -29.32735
H         77.59009       85.48908      -28.82628
H         77.84536       82.71568      -27.65339
H         78.12990       83.71534      -30.54718
H         76.73339       82.81822      -29.85902
H         79.55243       82.27576      -31.72409
H         79.78539       80.57479      -31.28032
N         80.39308       82.92837      -27.42094
C         81.83489       83.01041      -27.25489
C         82.25985       84.18690      -26.41086
O         81.71457       84.36223      -25.33012
H         79.91644       82.14497      -26.94956
H         82.35021       82.98006      -28.24061
H         82.15685       82.10736      -26.69256
N         83.31378       84.96897      -26.78579
C         83.85951       86.01565      -25.91951
C         82.93417       87.21964      -25.84339
O         81.87314       87.19216      -26.45007
C         85.27585       86.43662      -26.38727
C         86.24665       85.27567      -26.44040
C         86.46780       84.46103      -25.31277
C         86.95746       85.00839      -27.62214
C         87.36738       83.39311      -25.37556
C         87.86766       83.94842      -27.67740
C         88.07242       83.13461      -26.55878
O         88.94790       82.11177      -26.63161
H         83.80227       84.74396      -27.66655
H         83.96932       85.60690      -24.89242
H         85.70201       87.16648      -25.66956
H         85.20917       86.93796      -27.37770
H         85.94345       84.64095      -24.38385
H         86.81708       85.62721      -28.49934
H         87.51730       82.76950      -24.50282
H         88.41494       83.76007      -28.59217
H         89.11515       81.52308      -25.88166
N         83.28726       88.31458      -25.09770
C         82.49320       89.53239      -24.93287
C         82.29569       90.23599      -26.27601
O         81.74338       89.63192      -27.18259
C         81.14290       89.23366      -24.21137
C         80.34491       90.52519      -23.87913
C         81.35392       88.38950      -22.93854
C         81.00281       91.47809      -22.87549
H         84.18088       88.29125      -24.58604
H         83.07243       90.20529      -24.26619
H         80.50921       88.62689      -24.89034
H         79.36382       90.23547      -23.45108
H         80.15544       91.08768      -24.81379
H         82.01946       88.90354      -22.21526
H         80.37792       88.17949      -22.45105
H         81.81392       87.41020      -23.18671
H         80.33172       92.34737      -22.71021
H         81.15540       90.98398      -21.89427
H         81.97005       91.86385      -23.25205
N         82.67164       91.53793      -26.46402
C         82.43706       92.23630      -27.73075
C         83.60245       93.08776      -28.21151
O         83.46251       93.67261      -29.27885
C         81.18227       93.11206      -27.59546
O         80.08193       92.33247      -27.22750
H         83.01847       92.07201      -25.65403
H         82.23808       91.50043      -28.54234
H         80.95037       93.63021      -28.55352
H         81.34343       93.88492      -26.81537
H         80.01946       91.61173      -27.90699
N         84.76606       93.23862      -27.51173
C         85.84370       94.10673      -27.99297
C         86.40669       93.59382      -29.31602
O         86.12335       92.45285      -29.65645
C         86.94249       94.19122      -26.93362
H         84.88288       92.75800      -26.60876
H         85.40824       95.11922      -28.14554
H         86.51843       94.57693      -25.98194
H         87.38028       93.18664      -26.75059
H         87.74396       94.87501      -27.24761
N         87.14087       94.35389      -30.18486
C         87.51155       95.76012      -30.03735
C         88.94509       95.96380      -30.53173
O         89.23247       95.50543      -31.62965
C         86.57759       96.60164      -30.91129
H         87.36770       93.91212      -31.09076
H         87.36021       96.12123      -29.00614
H         86.64793       96.30431      -31.97948
H         85.52689       96.46908      -30.57478
H         86.83827       97.67857      -30.81876
N         89.90955       96.66464      -29.86405
C         89.71643       97.39565      -28.61798
C         89.91683       96.50554      -27.40133
O         89.72060       96.99020      -26.29450
C         90.71251       98.57939      -28.53851
C         90.53386       99.57988      -29.69351
C         91.51140      100.71462      -29.57339
O         91.49303      101.51231      -28.48824
O         92.32132      100.92535      -30.46232
H         90.82141       96.76359      -30.33938
H         88.69668       97.83689      -28.59964
H         91.75471       98.18753      -28.54892
H         90.55457       99.12340      -27.58072
H         89.50294       99.99323      -29.67681
H         90.68998       99.07030      -30.66876
N         90.32458       95.20790      -27.50730
C         90.54525       94.37994      -26.34080
H         91.33430       94.82980      -25.70158
H         89.60883       94.28565      -25.75259
H         90.87371       93.36603      -26.65245
H         90.49903       94.78529      -28.42994
Ca        78.93711       87.61501      -29.03150
O         81.48775       86.32170      -31.21068
H         81.61603       85.37476      -31.46885
H         80.98191       86.71840      -31.96362
O         82.95766       88.29101      -29.48605
H         83.61893       87.56310      -29.59963
H         83.49820       89.08048      -29.23148
O         80.08786       89.68553      -30.78767
H         79.43998       89.43343      -31.49340
H         80.72385       90.29526      -31.23797

Ca 1.0



