%chk=apoCaM-CA-Ng.loop1.water3.frame1430.chk
%nprocshared=20
%mem=10GB
%nosave
#b3lyp/svp scf=(tight,noincore,xqc) Test 
#IOP(5/87=12) Density=Current Pop=(MK,readradii) iop(6/33=2) iop(6/42=6)

apoCaM-CA-Ng.loop1.water3.frame1430 

   0  1 
C         70.75886       72.39798      122.56352
C         71.60189       73.63667      122.53919
O         71.65157       74.28083      121.50115
H         69.70849       72.66003      122.31993
H         71.13919       71.68269      121.80270
H         70.78765       71.90511      123.55687
N         72.32697       74.01307      123.63435
C         73.21804       75.17045      123.63023
C         74.65694       74.70316      123.65573
O         75.46249       75.18476      124.44245
C         72.85750       76.16624      124.75773
C         73.00455       75.64083      126.16877
O         72.70803       76.45018      127.20251
O         73.39845       74.50732      126.39558
H         72.28959       73.41930      124.47506
H         73.11211       75.71853      122.67198
H         71.80461       76.48969      124.61450
H         73.50719       77.06316      124.65956
N         75.04137       73.73623      122.78216
C         76.40652       73.25541      122.66754
C         77.29003       74.35976      122.10106
O         78.26519       74.68688      122.76041
C         76.47739       71.91768      121.88741
C         75.63682       70.84980      122.62288
C         75.72925       69.45602      121.99908
C         74.84993       68.47672      122.79721
N         74.93461       67.12062      122.26066
H         74.32031       73.31866      122.17581
H         76.78146       72.99823      123.68585
H         77.53755       71.58268      121.86134
H         76.12543       72.01457      120.84123
H         74.56847       71.15294      122.63046
H         75.98681       70.77952      123.67666
H         76.78628       69.11256      122.02260
H         75.38274       69.49081      120.94333
H         73.79038       68.81808      122.76339
H         75.17562       68.46495      123.86187
H         74.61217       67.10545      121.26629
H         75.91864       66.77248      122.32338
H         74.31816       66.49346      122.82720
N         77.01954       75.06011      120.95399
C         75.88132       74.86068      120.05775
C         74.88166       76.00931      120.16852
O         75.11287       76.95049      120.91583
C         76.37824       74.61629      118.62038
C         77.25683       75.72216      118.11539
O         76.79495       76.98309      118.03996
O         78.40601       75.47788      117.78875
H         77.65983       75.83811      120.72615
H         75.30846       73.96617      120.33330
H         75.51842       74.48705      117.93299
H         76.95930       73.66724      118.60821
N         73.68705       75.93249      119.51740
C         72.58706       76.86927      119.71089
C         72.81402       78.25763      119.15771
O         73.86091       78.53898      118.60022
H         73.49827       75.10490      118.93094
H         72.34753       76.93774      120.79215
H         71.69278       76.46466      119.18957
N         71.79694       79.16854      119.26158
C         71.81990       80.51781      118.67851
C         70.40650       80.99639      118.35063
O         69.45252       80.40296      118.83031
C         72.48243       81.51194      119.66142
C         73.93142       81.20576      119.77870
O         74.41773       80.85742      120.84206
O         74.67864       81.24100      118.66317
H         70.93511       78.83852      119.71864
H         72.35217       80.46193      117.70794
H         71.97658       81.45361      120.65160
H         72.40550       82.55628      119.31110
N         70.14467       82.05527      117.52425
C         71.10199       82.84812      116.76509
C         71.81289       82.04411      115.69903
O         71.16222       81.29551      114.98283
H         69.15214       82.30901      117.39302
H         71.81062       83.39305      117.41790
H         70.52575       83.62869      116.22281
N         73.14541       82.22310      115.47831
C         73.87239       81.55089      114.40414
C         74.25018       80.14595      114.83067
O         74.71304       79.97478      115.94774
C         75.14995       82.32827      114.00742
C         74.83157       83.74768      113.51974
O         75.79815       81.62883      112.97273
H         73.64396       82.92525      116.04732
H         73.25193       81.52975      113.47891
H         75.81212       82.39922      114.89387
H         76.73251       81.96059      112.93257
H         74.35668       84.34814      114.32218
H         75.77210       84.25900      113.22255
H         74.15371       83.71579      112.64032
N         74.13639       79.10742      113.95217
C         74.50891       77.71652      114.21442
C         75.98979       77.57177      114.54528
O         76.42900       78.07507      115.56754
C         73.63877       77.07502      115.33394
C         72.11975       77.29405      115.12214
C         73.96409       75.57549      115.49103
C         71.55825       76.72089      113.81836
H         73.77119       79.31356      113.00956
H         74.31153       77.14876      113.27865
H         73.88876       77.56144      116.29699
H         71.90379       78.38368      115.14235
H         71.57274       76.83751      115.97589
H         73.35995       75.13259      116.31009
H         73.76614       75.01829      114.55215
H         75.03311       75.42935      115.74856
H         72.03262       77.19915      112.93716
H         71.70221       75.62301      113.76631
H         70.46869       76.92704      113.77140
N         76.81163       76.84686      113.73606
C         78.20751       76.56864      114.06503
C         79.17093       77.29347      113.14397
O         80.36614       77.13664      113.34330
C         78.46202       75.03984      114.10251
C         78.25275       74.33554      112.75669
O         77.61165       74.45703      115.05829
H         76.42969       76.46808      112.85758
H         78.44795       76.94911      115.08286
H         79.53033       74.88823      114.39511
H         78.16729       73.87853      115.64339
H         78.49658       73.25707      112.86400
H         77.19862       74.40957      112.42050
H         78.91662       74.76721      111.97898
N         78.74350       78.12751      112.14878
C         79.65492       78.91827      111.32254
C         80.36939       79.93721      112.20854
O         79.81232       80.99514      112.46347
C         78.87930       79.61103      110.16467
C         78.27551       78.57612      109.20123
O         77.85257       80.41735      110.68947
H         77.73261       78.22556      111.98449
H         80.40744       78.24030      110.86072
H         79.59876       80.24299      109.59507
H         77.51106       80.97984      109.94648
H         77.74289       79.09346      108.37526
H         79.07711       77.94744      108.76059
H         77.54636       77.91617      109.71659
N         81.56445       79.62372      112.79865
C         82.24362       80.42951      113.81535
C         81.40354       80.58489      115.07251
O         80.22732       80.89679      114.98512
C         82.72018       81.79951      113.31465
C         83.68963       81.66945      112.13298
C         84.40247       83.00154      111.87971
C         85.34053       82.91319      110.67144
N         86.09721       84.15470      110.51307
H         82.01026       78.72731      112.55425
H         83.17114       79.88825      114.11203
H         83.26587       82.26948      114.16479
H         81.87288       82.46425      113.04316
H         83.12745       81.33681      111.23328
H         84.46969       80.91051      112.36668
H         85.00041       83.25446      112.78432
H         83.65790       83.80838      111.70748
H         84.73728       82.72265      109.75611
H         86.05478       82.07011      110.80473
H         86.69143       84.08795      109.65572
H         85.44689       84.96791      110.41609
H         86.71865       84.29887      111.34264
N         81.97048       80.44594      116.30205
C         81.19251       80.56241      117.52616
C         80.26758       79.36829      117.68663
O         79.08606       79.60116      117.85597
C         82.07722       80.76891      118.77072
C         82.81655       82.11519      118.70381
C         83.62009       82.35230      119.94776
O         84.52519       81.59156      120.25064
O         83.35086       83.41374      120.73201
H         82.98551       80.27683      116.36902
H         80.56470       81.48414      117.47644
H         82.80522       79.94770      118.89600
H         81.41667       80.79150      119.66743
H         82.07190       82.93583      118.59817
H         83.49419       82.14385      117.82483
N         80.66099       78.06356      117.64570
C         81.99884       77.59323      117.36901
H         82.71180       77.93710      118.13730
H         82.00632       76.48262      117.37904
H         82.31743       77.91692      116.35789
H         79.93935       77.34559      117.78811
Ca        76.59417       80.11366      118.57561
O         77.88121       82.71041      119.22345
H         78.66964       82.12776      119.36354
H         77.23361       82.42130      119.91497
O         77.61187       81.13972      116.06180
H         77.62806       80.79195      115.13489
H         77.94805       82.06861      115.99371
O         77.27019       79.26761      121.36495
H         76.36499       79.16490      120.98079
H         77.43233       78.41074      121.83189

Ca 1.0



