%chk=apoCaM-CA-Ng.loop1.water4.frame281.chk
%nprocshared=20
%mem=10GB
%nosave
#b3lyp/svp scf=(tight,noincore,xqc) Test 
#IOP(5/87=12) Density=Current Pop=(MK,readradii) iop(6/33=2) iop(6/42=6)

apoCaM-CA-Ng.loop1.water4.frame281 

   0  1 
C         57.23088       41.35119       36.63745
C         56.53954       42.66867       36.82677
O         56.48787       43.46910       35.90389
H         58.06151       41.26024       37.36878
H         56.50729       40.52586       36.81251
H         57.63898       41.25778       35.60991
N         55.95910       42.94632       38.02259
C         55.22048       44.17237       38.29900
C         56.13642       45.38196       38.51705
O         55.61505       46.39627       38.93252
C         54.34800       43.98998       39.57342
C         53.32347       42.88903       39.46104
O         52.01185       43.18350       39.54575
O         53.66591       41.72520       39.33198
H         56.00340       42.21820       38.75211
H         54.50622       44.37876       37.47291
H         53.77804       44.92708       39.74529
H         54.99180       43.80516       40.46070
N         57.48928       45.37411       38.33536
C         58.34209       46.45737       38.83698
C         59.12110       47.19394       37.76342
O         59.68280       46.52563       36.90717
C         59.33241       45.85431       39.84264
C         58.59268       45.36326       41.08983
C         59.57408       44.87400       42.15073
C         58.82485       44.51667       43.43764
N         59.75560       44.08934       44.47873
H         57.95460       44.54801       37.93616
H         57.74814       47.19813       39.38510
H         60.05319       46.63344       40.15802
H         59.91528       45.03128       39.37187
H         57.88201       44.54904       40.82677
H         58.01577       46.21676       41.51083
H         60.30107       45.68562       42.37556
H         60.12958       43.98968       41.76797
H         58.09250       43.70413       43.23359
H         58.26625       45.41121       43.79574
H         60.26527       43.22946       44.17200
H         60.44028       44.85397       44.68178
H         59.21737       43.87778       45.34937
N         59.34347       48.55615       37.78578
C         58.82274       49.56061       38.73400
C         59.07957       49.21270       40.19659
O         58.12662       49.04840       40.94180
C         57.32787       49.86202       38.46674
C         57.10453       50.47517       37.12118
O         58.13722       50.77246       36.30873
O         55.96428       50.69985       36.74996
H         59.98040       48.92614       37.06231
H         59.34933       50.52422       38.55399
H         56.93716       50.58365       39.21500
H         56.72437       48.93595       38.53461
N         60.31973       49.10044       40.73373
C         61.55344       49.37247       40.01838
C         62.76130       49.10087       40.89473
O         62.63736       48.37132       41.86952
H         60.35911       48.84445       41.73258
H         61.53674       50.42674       39.70333
H         61.63924       48.73656       39.11225
N         64.00201       49.57577       40.60700
C         64.32532       50.49956       39.52567
C         63.79989       51.90957       39.78834
O         63.94724       52.41015       40.89535
C         65.85674       50.56800       39.29724
C         66.65956       51.14481       40.44174
O         66.70090       50.53363       41.64085
O         67.31047       52.16311       40.27195
H         64.76561       49.23134       41.20514
H         63.91205       50.10105       38.57265
H         66.03359       51.19453       38.39444
H         66.23613       49.54779       39.07355
N         63.32118       52.66123       38.75514
C         63.04120       54.08822       38.86395
C         61.77533       54.45999       39.60443
O         61.52292       55.65265       39.71408
H         63.28656       52.24113       37.81440
H         62.92916       54.50259       37.83869
H         63.91507       54.59387       39.33085
N         60.91206       53.53298       40.10293
C         59.65468       53.87937       40.75316
C         59.65758       53.36667       42.17000
O         59.96128       52.20057       42.39322
C         58.44927       53.28584       39.99902
C         58.40393       53.76831       38.54613
O         57.27125       53.68608       40.65409
H         61.12980       52.53607       40.00076
H         59.50010       54.98191       40.76660
H         58.53105       52.17866       40.02329
H         56.52251       53.17738       40.24817
H         57.51956       53.33338       38.03477
H         58.32701       54.87599       38.51048
H         59.31321       53.44569       38.00039
N         59.25761       54.18468       43.17816
C         59.16256       53.75830       44.56584
C         58.24628       52.53585       44.65662
O         58.66731       51.55404       45.25017
C         58.70530       54.93889       45.49013
C         59.71940       56.12510       45.40191
C         58.58754       54.46024       46.95302
C         59.32341       57.36493       46.20897
H         58.95834       55.13849       42.92788
H         60.17574       53.45947       44.92281
H         57.70435       55.28852       45.15303
H         59.81882       56.47317       44.35562
H         60.72518       55.78872       45.73659
H         58.20673       55.26575       47.61207
H         57.86817       53.62242       47.04381
H         59.57615       54.12329       47.33355
H         58.32922       57.73701       45.88356
H         59.30872       57.16097       47.29779
H         60.07275       58.16754       46.03610
N         57.00981       52.50705       44.06067
C         56.09652       51.36143       44.18561
C         55.81285       50.69449       42.82756
O         56.25493       51.18817       41.80475
C         54.78178       51.82652       44.86623
C         55.04803       52.67612       46.11796
O         54.01728       50.70616       45.23012
H         56.69403       53.32921       43.52555
H         56.56535       50.58940       44.83348
H         54.21608       52.45314       44.13829
H         53.10688       51.03061       45.45360
H         54.08462       52.97455       46.58184
H         55.65002       52.10998       46.85871
H         55.58358       53.61138       45.84839
N         55.10636       49.52110       42.77083
C         54.83075       48.75756       41.54252
C         53.90312       49.47416       40.55295
O         53.40989       50.55259       40.85644
C         54.27407       47.35076       41.90688
C         52.89925       47.38479       42.58874
O         55.19932       46.69281       42.73631
H         54.82412       49.10666       43.66678
H         55.79016       48.58297       41.02250
H         54.16210       46.77562       40.96852
H         55.06145       45.71649       42.61613
H         52.93250       47.92532       43.55573
H         52.14919       47.86926       41.93005
H         52.56217       46.34515       42.78750
N         53.63292       48.90829       39.33038
C         52.72462       49.47689       38.33359
C         53.02453       49.09754       36.86022
O         52.50328       49.78802       35.99731
C         51.25789       49.24668       38.78526
C         50.82130       47.76854       38.93768
C         50.31523       47.12296       37.63654
C         49.88046       45.65001       37.81238
N         48.85741       45.46481       38.84759
H         54.06710       48.01615       39.13183
H         52.91390       50.57379       38.34329
H         50.53157       49.80093       38.15305
H         51.19055       49.69036       39.80168
H         49.95732       47.77081       39.63509
H         51.63038       47.16663       39.40602
H         51.10166       47.15204       36.85587
H         49.44176       47.70896       37.27361
H         50.76498       45.02553       38.05884
H         49.47440       45.29374       36.83899
H         49.25739       45.64661       39.79601
H         48.03758       46.09042       38.67539
H         48.53173       44.47081       38.83121
N         53.85315       48.06944       36.48046
C         54.28537       47.80442       35.10167
C         53.67375       46.51925       34.58751
O         53.80550       45.48724       35.22909
C         55.83466       47.69498       35.06366
C         56.44393       47.23376       33.71839
C         56.19988       48.12884       32.52587
O         55.56923       47.69866       31.57395
O         56.77760       49.34391       32.42660
H         54.21953       47.42407       37.18267
H         53.98612       48.62919       34.42123
H         56.15141       46.94244       35.82028
H         56.27766       48.65657       35.35827
H         56.05106       46.21950       33.49125
H         57.54365       47.12633       33.84201
N         53.05019       46.51067       33.37419
C         52.51191       45.31824       32.75476
H         51.43766       45.47538       32.52830
H         53.05389       45.12822       31.80310
H         52.61543       44.42149       33.39981
H         52.98795       47.38550       32.83175
Ca        57.83199       50.30623       34.15142
O         54.90749       51.51852       33.90217
H         53.93424       51.49147       34.07562
H         55.23274       50.64400       34.22673
O         56.56208       52.09116       31.18693
H         56.44859       51.28929       30.61740
H         55.63795       52.38821       31.38155
O         57.43775       54.03732       33.61349
H         56.80985       54.54937       33.04424
H         58.15333       54.68456       33.83555
O         60.17326       52.78888       35.06842
H         60.23391       53.77648       35.10347
H         60.39792       52.49422       35.98650

Ca 1.0



