%chk=apoCaM-CA-Ng.loop2.water3.frame321.chk
%nprocshared=20
%mem=10GB
%nosave
#b3lyp/svp scf=(tight,noincore,xqc) Test 
#IOP(5/87=12) Density=Current Pop=(MK,readradii) iop(6/33=2) iop(6/42=6)

apoCaM-CA-Ng.loop2.water3.frame321 

   -2  1 
C         30.73884       98.26574       46.60815
C         29.99503       99.56598       46.73257
O         29.97267      100.12537       47.81858
H         31.80487       98.41999       46.87998
H         30.29683       97.51305       47.29463
H         30.69585       97.86782       45.57257
N         29.37145      100.11989       45.65303
C         28.65344      101.39124       45.71477
C         27.45415      101.27498       46.63916
O         26.55358      100.49984       46.34604
C         28.19565      101.80446       44.29849
C         27.48854      103.13528       44.23754
O         27.29909      103.88417       45.34202
O         27.07957      103.54450       43.16339
H         29.43616       99.62773       44.74821
H         29.35889      102.16725       46.08750
H         27.51592      101.02253       43.89291
H         29.08905      101.86156       43.63945
N         27.39042      102.01029       47.78920
C         26.28940      101.90727       48.74487
C         26.11562      100.46594       49.14865
O         25.01610       99.94546       49.02487
C         26.55023      102.78375       49.97251
H         28.17933      102.63650       48.01258
H         25.34870      102.26553       48.26927
H         26.64435      103.84558       49.66040
H         25.69916      102.70337       50.68287
H         27.48275      102.47679       50.49164
N         27.20350       99.73193       49.52095
C         27.19280       98.28597       49.67906
C         26.32108       97.91973       50.86326
O         25.37753       97.15436       50.71948
C         26.75245       97.65771       48.32561
C         27.08225       96.22072       48.07333
O         26.73053       95.72390       47.01500
O         27.83748       95.49069       48.90752
H         28.11463      100.20663       49.60544
H         28.23884       97.96970       49.89322
H         27.27367       98.20218       47.50926
H         25.66107       97.79382       48.18256
N         26.58256       98.48213       52.07916
C         25.77250       98.25339       53.26433
C         26.53540       97.54492       54.36123
O         25.93021       97.27361       55.38860
H         27.38661       99.12356       52.16754
H         24.88686       97.62772       53.02469
H         25.40022       99.23190       53.63872
N         27.84557       97.18571       54.21768
C         28.57614       96.39972       55.19912
C         29.75825       97.18042       55.73889
O         30.63301       97.56965       54.97636
C         29.06323       95.10485       54.52674
C         29.91737       94.27967       55.45733
N         31.22449       94.07252       55.17707
O         29.43376       93.81614       56.47882
H         28.35654       97.43898       53.36035
H         27.91700       96.11460       56.04894
H         29.65370       95.37691       53.62398
H         28.19221       94.50216       54.18835
H         31.64811       94.48328       54.33585
H         31.82240       93.52266       55.80965
N         29.86079       97.39693       57.07838
C         30.99975       98.03493       57.70436
C         32.24692       97.18656       57.57691
O         32.22895       96.03343       57.98378
H         29.09989       97.08050       57.69854
H         30.79052       98.13979       58.79085
H         31.14072       99.05705       57.28953
N         33.39134       97.72535       57.07824
C         34.67845       97.03457       57.09131
C         34.89004       96.11392       55.89434
O         35.39100       95.01676       56.09916
C         35.87323       98.01962       57.27510
C         35.96455       99.17301       56.26244
O         35.88378       98.54601       58.57930
H         33.36413       98.71867       56.81238
H         34.74625       96.39344       58.00168
H         36.79836       97.40833       57.17320
H         35.05915       99.08577       58.69565
H         35.89369       98.82192       55.22407
H         35.15777       99.91592       56.41522
H         36.93328       99.69989       56.39648
N         34.60048       96.50338       54.62015
C         34.97842       95.73085       53.43343
C         33.75211       95.22384       52.70138
O         32.88898       96.01236       52.34165
C         35.87118       96.61455       52.51418
C         37.23059       96.95961       53.18368
C         36.10358       95.99097       51.12426
C         38.16762       95.77252       53.43197
H         34.12585       97.40772       54.47685
H         35.56606       94.83495       53.71206
H         35.32771       97.57111       52.33909
H         37.05913       97.43573       54.15973
H         37.76508       97.69428       52.54437
H         36.58788       94.99695       51.20066
H         35.14268       95.86505       50.58270
H         36.73552       96.66603       50.50904
H         38.44891       95.27865       52.48083
H         39.09796       96.14239       53.91115
H         37.71574       95.02874       54.11793
N         33.64348       93.88650       52.42795
C         32.52145       93.28984       51.70947
C         32.58386       91.75855       51.82115
O         32.39132       91.06418       50.83509
C         32.55883       93.76967       50.23290
C         31.36113       93.38858       49.41423
O         30.31736       92.73778       49.96395
O         31.32956       93.69138       48.23221
H         34.39655       93.26502       52.75920
H         31.58666       93.61795       52.21083
H         33.47417       93.35466       49.75434
H         32.62830       94.87431       50.18353
N         32.89832       91.17104       53.01254
C         33.01505       89.72713       53.22374
C         33.96310       89.08305       52.20484
O         35.06205       89.59429       52.04423
C         33.58848       89.46741       54.64058
C         33.52750       88.00609       55.00427
C         32.28530       87.41501       55.29030
C         34.69221       87.22121       55.05565
C         32.20758       86.05915       55.61676
C         34.60813       85.86096       55.37238
C         33.36731       85.28119       55.65328
H         33.09361       91.78876       53.81537
H         31.99945       89.28803       53.15898
H         33.02970       90.03371       55.41712
H         34.63885       89.83761       54.66338
H         31.37902       88.00720       55.26097
H         35.65958       87.65440       54.83346
H         31.24699       85.61220       55.83688
H         35.50429       85.25459       55.39778
H         33.30350       84.22926       55.89907
N         33.65099       87.93190       51.52280
C         34.59528       87.24421       50.65260
C         34.62422       87.80704       49.23747
O         35.42604       87.32039       48.44926
C         34.08971       85.79869       50.68108
C         32.58701       86.00236       50.71233
C         32.45191       87.14097       51.72088
H         35.62602       87.26752       51.07101
H         34.47493       85.14122       49.87213
H         34.37736       85.34847       51.66009
H         32.27858       86.37516       49.71041
H         31.98649       85.10057       50.95872
H         31.51093       87.70305       51.54360
H         32.47305       86.73176       52.74930
N         33.79302       88.80757       48.82584
C         33.85174       89.37587       47.48292
C         35.19090       90.05036       47.26637
O         35.92163       89.63200       46.38002
C         32.71045       90.39072       47.24571
C         31.34176       89.69912       47.16432
C         30.23647       90.69279       46.95662
O         30.23879       91.42950       45.98255
O         29.22167       90.75727       47.83865
H         33.08925       89.17059       49.48072
H         33.73901       88.55980       46.73239
H         32.88185       90.90829       46.27551
H         32.71026       91.15632       48.05130
H         31.14073       89.12778       48.09480
H         31.34366       88.99001       46.30802
N         35.57257       91.10645       48.03928
C         36.83480       91.79858       47.87187
H         37.45642       91.35963       47.06296
H         36.63930       92.86232       47.62216
H         37.40960       91.74927       48.81964
H         34.94107       91.44554       48.77947
Ca        28.48724       93.56103       47.93287
O         29.75234       94.74403       45.13725
H         30.60753       95.08217       44.77005
H         29.05904       95.11913       44.53794
O         26.42227       92.63501       49.62925
H         26.96855       92.99445       50.37318
H         26.40119       91.65777       49.78381
O         26.46452       92.41177       45.80762
H         25.58841       92.43463       46.26856
H         26.47116       93.22753       45.24632

Ca 1.0



