%chk=apoCaM-CA-Ng.loop2.water4.frame733.chk
%nprocshared=20
%mem=10GB
%nosave
#b3lyp/svp scf=(tight,noincore,xqc) Test 
#IOP(5/87=12) Density=Current Pop=(MK,readradii) iop(6/33=2) iop(6/42=6)

apoCaM-CA-Ng.loop2.water4.frame733 

   -2  1 
C         78.24845       17.41043       -7.61571
C         78.30785       18.27711       -8.84013
O         77.45203       18.15289       -9.70435
H         78.19644       18.04521       -6.70514
H         77.35427       16.75140       -7.63824
H         79.15919       16.77831       -7.56559
N         79.28786       19.21530       -8.95572
C         79.41418       20.12795      -10.08495
C         78.92677       21.48677       -9.63011
O         79.70516       22.42110       -9.49357
C         80.87603       20.13150      -10.58283
C         81.09740       21.00177      -11.79723
O         80.08151       21.67662      -12.37287
O         82.21750       21.09403      -12.27198
H         79.94767       19.32868       -8.16960
H         78.76920       19.80940      -10.93456
H         81.16783       19.09315      -10.85038
H         81.54208       20.48072       -9.76322
N         77.60121       21.64129       -9.36926
C         77.00760       22.86133       -8.84334
C         76.30867       22.53333       -7.53965
O         76.06782       21.35755       -7.29281
C         75.99068       23.38325       -9.86608
H         76.97490       20.83814       -9.54181
H         77.79149       23.62426       -8.66625
H         75.49272       24.30960       -9.52629
H         76.49977       23.59691      -10.82898
H         75.20333       22.61807      -10.04968
N         75.89660       23.46493       -6.63793
C         76.14205       24.90724       -6.66521
C         77.61986       25.28769       -6.53968
O         78.27925       24.88347       -5.59203
C         75.35108       25.63430       -5.53824
C         75.62185       25.14541       -4.13257
O         75.23596       23.90409       -3.77891
O         76.13232       25.88330       -3.30529
H         75.34292       23.08148       -5.86563
H         75.73923       25.32973       -7.60547
H         74.26171       25.52187       -5.72372
H         75.58713       26.72057       -5.60378
N         78.14300       26.20617       -7.40537
C         79.41995       26.88374       -7.21985
C         80.63567       26.03381       -7.52821
O         80.67386       25.47955       -8.61726
H         77.53973       26.56482       -8.16087
H         79.42582       27.31897       -6.20517
H         79.45947       27.72995       -7.93985
N         81.70469       25.89118       -6.68156
C         81.82724       26.50818       -5.36091
C         83.01130       25.92828       -4.59752
O         84.13067       25.96321       -5.09099
C         81.95713       28.06174       -5.37086
C         83.26761       28.61637       -5.87842
N         83.63133       28.49356       -7.17332
O         84.00341       29.20840       -5.10130
H         82.46708       25.26909       -6.99594
H         80.90175       26.26386       -4.79690
H         81.85625       28.37960       -4.30768
H         81.14111       28.55759       -5.92465
H         83.02029       28.01918       -7.85131
H         84.52425       28.89414       -7.49882
N         82.82907       25.43456       -3.34411
C         83.94742       24.95338       -2.54145
C         83.63333       24.60143       -1.09143
O         84.57303       24.20158       -0.41459
H         81.87563       25.46076       -2.98077
H         84.72251       25.75060       -2.50521
H         84.38650       24.06314       -3.04201
N         82.39760       24.72543       -0.51765
C         82.11589       24.41245        0.87737
C         81.13627       23.25926        0.96678
O         80.69362       22.75869       -0.06288
C         81.58080       25.67532        1.60209
C         82.65117       26.76735        1.66699
O         80.44873       26.18809        0.94481
H         81.58940       25.05508       -1.05458
H         83.03595       24.07361        1.40376
H         81.32597       25.43704        2.65943
H         79.67412       25.63248        1.21996
H         82.96060       27.08580        0.64909
H         82.25418       27.65200        2.20879
H         83.54310       26.39394        2.21485
N         80.79569       22.74655        2.18012
C         79.94382       21.57919        2.35331
C         78.74016       21.94973        3.20159
O         78.91021       22.30489        4.36200
C         80.77061       20.43662        3.01399
C         79.89357       19.19067        3.30996
C         81.96850       20.06869        2.11067
C         80.61230       18.13631        4.15345
H         81.20241       23.17055        3.03005
H         79.58394       21.20820        1.36728
H         81.16251       20.82059        3.98260
H         79.53618       18.73911        2.36340
H         79.00235       19.48972        3.89951
H         82.61135       20.95385        1.92229
H         82.62040       19.30898        2.58316
H         81.61251       19.67895        1.13202
H         79.91625       17.29810        4.36587
H         81.49624       17.71870        3.63340
H         80.93131       18.58205        5.12053
N         77.48442       21.84909        2.68584
C         76.25994       22.05406        3.44367
C         75.40053       20.78637        3.48764
O         74.33468       20.84749        4.08290
C         75.49833       23.27788        2.89847
C         75.14924       23.18369        1.44411
O         75.58097       24.02004        0.66781
O         74.34346       22.20450        0.99299
H         77.38006       21.59588        1.69730
H         76.49386       22.29452        4.50441
H         76.14101       24.17394        3.04959
H         74.56652       23.43277        3.48291
N         75.82671       19.58485        2.97486
C         75.12618       18.33051        3.24267
C         75.18197       17.39206        2.02940
O         75.77913       16.32909        2.14119
C         75.78623       17.70596        4.50039
C         75.13966       16.46466        5.09303
C         73.96188       15.86961        4.59008
C         75.75702       15.88819        6.21767
C         73.43136       14.72658        5.19842
C         75.22229       14.74695        6.82110
C         74.06090       14.16549        6.31122
H         76.76637       19.51415        2.56096
H         74.06450       18.52332        3.50751
H         75.78258       18.47452        5.30496
H         76.84831       17.47655        4.25933
H         73.44054       16.27384        3.73505
H         76.65918       16.32545        6.62833
H         72.52888       14.27498        4.80686
H         75.70970       14.31382        7.68512
H         73.64807       13.28133        6.77979
N         74.55756       17.67373        0.84140
C         74.49715       16.73785       -0.27940
C         75.83694       16.31018       -0.85028
O         75.86161       15.38735       -1.65336
C         73.72610       17.51131       -1.35388
C         72.80224       18.36685       -0.51709
C         73.73588       18.83751        0.59772
H         73.93574       15.84644        0.08173
H         74.42076       18.21811       -1.86667
H         73.23998       16.87492       -2.12407
H         72.28814       19.18434       -1.06448
H         72.03519       17.69010       -0.07548
H         74.39673       19.66408        0.25907
H         73.12194       19.14606        1.46939
N         76.98214       16.97643       -0.54054
C         78.28316       16.60952       -1.07769
C         78.71939       15.32160       -0.41792
O         78.96241       14.34719       -1.11568
C         79.32625       17.73138       -0.84844
C         79.06136       18.99848       -1.69307
C         77.76985       19.68463       -1.36169
O         76.89347       19.79802       -2.20203
O         77.56371       20.16059       -0.12570
H         76.92527       17.78264        0.09168
H         78.21656       16.46707       -2.18083
H         80.32108       17.34970       -1.16724
H         79.39390       17.98963        0.22657
H         79.06580       18.72147       -2.76971
H         79.88488       19.72457       -1.52135
N         78.80213       15.24552        0.94111
C         79.16130       14.03947        1.65708
H         80.05401       14.23665        2.28564
H         78.31682       13.74334        2.31495
H         79.38632       13.19271        0.97550
H         78.57554       16.07800        1.50612
Ca        75.53119       22.85011       -1.81687
O         77.11583       21.74502       -4.22836
H         76.67554       20.98873       -4.69144
H         78.04961       21.73158       -4.55440
O         72.81462       24.18792       -1.40371
H         72.01832       23.70811       -1.06331
H         72.58799       24.41436       -2.34066
O         73.58026       20.86852       -3.27234
H         72.60208       20.75494       -3.16928
H         73.79240       20.43012       -4.13440
O         78.42996       23.45370       -1.80841
H         78.11590       23.38121       -0.87179
H         78.02915       24.29613       -2.13883

Ca 1.0



