%chk=apoCaM-CA-Ng.loop4.water8.frame901.chk
%nprocshared=20
%mem=10GB
%nosave
#b3lyp/svp scf=(tight,noincore,xqc) Test 
#IOP(5/87=12) Density=Current Pop=(MK,readradii) iop(6/33=2) iop(6/42=6)

apoCaM-CA-Ng.loop4.water8.frame901 

   -3  1 
C         75.27291        4.24063       46.32200
C         74.64551        2.87938       46.33699
O         75.30358        1.90964       45.98959
H         76.32518        4.18830       45.97118
H         74.69948        4.90635       45.64343
H         75.25572        4.66829       47.34670
N         73.35578        2.73997       46.75195
C         72.63619        1.47382       46.81976
C         73.35935        0.51456       47.76039
O         73.65399       -0.61165       47.38247
C         72.41855        0.91746       45.38837
C         71.47116       -0.25159       45.30815
O         71.23234       -0.75274       44.22104
O         70.86277       -0.73952       46.40702
H         72.84891        3.58616       47.05583
H         71.63412        1.69313       47.25287
H         73.39341        0.62124       44.94562
H         71.98811        1.72648       44.75844
N         73.71490        0.93520       49.00915
C         74.50134        0.11345       49.93202
C         73.58887       -0.79460       50.75780
O         72.40688       -0.49401       50.85193
C         75.40905        1.00285       50.85385
C         74.58646        1.92779       51.79490
C         76.41622        1.79162       49.99545
C         75.44288        2.65601       52.83261
H         73.50012        1.91038       49.25684
H         75.17416       -0.52680       49.32003
H         76.00293        0.34308       51.51272
H         73.86226        1.30887       52.36550
H         74.01637        2.68597       51.22145
H         75.89918        2.51786       49.33403
H         77.14241        2.34047       50.62780
H         77.00594        1.09259       49.36451
H         76.15503        3.35737       52.35436
H         74.78330        3.24919       53.50061
H         76.00281        1.92288       53.45154
N         74.03087       -1.91503       51.41379
C         75.34765       -2.51839       51.21129
C         75.40402       -3.28746       49.90124
O         76.49987       -3.59820       49.45462
C         75.81210       -3.36394       52.41735
C         75.01517       -4.62108       52.65212
O         75.62629       -5.81918       52.58536
O         73.83075       -4.56987       52.93955
H         73.33319       -2.43766       51.96097
H         76.09323       -1.71159       51.13254
H         75.78609       -2.73605       53.33462
H         76.87128       -3.65667       52.24367
N         74.26724       -3.58761       49.20509
C         74.27819       -4.12925       47.86163
C         74.92588       -5.48161       47.71862
O         75.33598       -6.10159       48.69068
H         73.34343       -3.35814       49.59784
H         74.82194       -3.41305       47.20989
H         73.23365       -4.21046       47.48839
N         75.05580       -5.98014       46.45963
C         75.66675       -7.26223       46.13644
C         77.12005       -7.38837       46.57185
O         77.62120       -8.50248       46.51952
C         75.54180       -7.55646       44.61375
C         76.23810       -6.55820       43.70981
O         75.92460       -5.37835       43.71260
O         77.17815       -6.97948       42.84379
H         74.65785       -5.41366       45.69818
H         75.09403       -8.04327       46.68407
H         74.46599       -7.56977       44.34027
H         75.95501       -8.56732       44.40280
N         77.87643       -6.33053       46.99669
C         79.27256       -6.49694       47.37688
C         80.15718       -6.92733       46.21703
O         81.31060       -7.24900       46.46262
H         77.47253       -5.38566       47.05415
H         79.32369       -7.25835       48.18594
H         79.67714       -5.54385       47.78194
N         79.70032       -6.93297       44.92666
C         80.47317       -7.36545       43.76836
C         81.67816       -6.47956       43.48554
O         82.45043       -6.83194       42.60488
C         80.78883       -8.88435       43.83564
C         79.47565       -9.69502       43.76437
C         79.68624      -11.18092       43.62710
N         79.10139      -12.04802       44.48753
O         80.35243      -11.61121       42.69740
H         78.75000       -6.60494       44.73309
H         79.84839       -7.24115       42.85687
H         81.37853       -9.15008       44.73912
H         81.39206       -9.15482       42.94175
H         78.90876       -9.37276       42.86520
H         78.85445       -9.48065       44.65320
H         78.50732      -11.71233       45.25970
H         79.21878      -13.06497       44.36361
N         81.84873       -5.26850       44.10183
C         82.94132       -4.35523       43.77030
C         82.44850       -3.03079       43.18773
O         83.29916       -2.27047       42.74254
C         83.84835       -4.10625       45.00703
C         83.09821       -3.42242       46.16512
C         84.48247       -5.41715       45.49141
H         81.16998       -4.96148       44.80909
H         83.57791       -4.80582       42.97729
H         84.67853       -3.43274       44.69710
H         82.28041       -4.06269       46.55605
H         83.79868       -3.21539       47.00128
H         82.66776       -2.45328       45.83580
H         83.70604       -6.13433       45.83004
H         85.06664       -5.88534       44.67079
H         85.17265       -5.21890       46.33865
N         81.12893       -2.66118       43.16706
C         80.66864       -1.38329       42.61753
C         79.60751       -1.64088       41.53942
O         79.17309       -2.77802       41.39624
C         80.13457       -0.52541       43.79575
C         80.00752        0.96743       43.56887
N         79.47980        1.74708       44.54055
O         80.41109        1.49073       42.54327
H         80.41733       -3.27871       43.58360
H         81.52932       -0.85379       42.15484
H         80.84675       -0.61674       44.64535
H         79.16196       -0.94998       44.12691
H         79.14566        1.33430       45.42346
H         79.40162        2.76685       44.40913
N         79.17742       -0.65182       40.70475
C         78.19159       -0.87192       39.64249
C         78.17418        0.27429       38.63244
O         78.88522        1.25453       38.81992
C         76.76990       -1.11123       40.22336
C         76.15370        0.12366       40.85406
C         76.68485        0.68785       42.02595
C         75.02413        0.72158       40.26494
C         76.10860        1.83152       42.58892
C         74.44859        1.86308       40.82939
C         74.98875        2.42458       41.98934
O         74.42417        3.52927       42.51669
H         79.62412        0.26544       40.78388
H         78.50685       -1.77453       39.07350
H         76.77198       -1.94219       40.95925
H         76.12172       -1.44697       39.38638
H         77.53927        0.24289       42.50963
H         74.58946        0.31042       39.36241
H         76.53280        2.25468       43.49070
H         73.58245        2.31374       40.36108
H         74.77040        3.95211       43.31468
N         77.38334        0.21284       37.51978
C         77.33645        1.28178       36.53047
C         75.93096        1.86234       36.47662
O         75.06873        1.23381       35.87705
C         77.74675        0.76348       35.13674
C         79.18033        0.22251       35.10132
C         79.50863       -0.28872       33.72719
O         78.79638       -1.30146       33.19544
O         80.42224        0.20653       33.08727
H         76.78783       -0.61543       37.36662
H         78.05718        2.07120       36.79512
H         77.66542        1.59748       34.40367
H         77.04693       -0.04535       34.82854
H         79.29478       -0.61367       35.82338
H         79.88625        1.03484       35.38262
N         75.56476        3.01420       37.11480
C         76.42194        3.77332       38.02524
C         77.58760        4.46238       37.33212
O         77.63943        4.49408       36.10984
C         75.57951        4.80131       38.81786
C         75.02955        5.94535       37.94614
C         74.16803        6.86643       38.75677
O         74.68964        7.49313       39.82644
O         73.00700        7.06885       38.43835
H         74.57307        3.28737       37.03406
H         76.82381        3.04712       38.76522
H         76.19821        5.23523       39.63203
H         74.73301        4.26397       39.29628
H         74.43777        5.54505       37.09663
H         75.87441        6.53687       37.53311
N         78.57547        5.02732       38.08338
C         79.72955        5.70066       37.52335
H         80.65264        5.16803       37.83579
H         79.70348        5.73787       36.41440
H         79.76972        6.74063       37.90966
H         78.52163        4.96394       39.11112
Ca        73.56068        9.04565       41.00403
O         73.79412       12.25843       40.53960
H         73.88783       12.63178       39.62741
H         72.83942       12.39002       40.76571
O         71.29161       10.09033       39.43424
H         71.05291       10.60249       40.24739
H         71.06693        9.15239       39.65916
O         74.27882       10.90862       43.55360
H         74.87395       11.67300       43.75769
H         73.80423       10.72959       44.40365
O         71.85372        8.92275       43.35359
H         71.47055        9.79787       43.09240
H         71.23993        8.25425       42.95829
O         75.21304       10.01697       38.46398
H         75.79810        9.51168       37.84525
H         74.77362       10.69718       37.89509
O         76.45746       10.75067       41.41517
H         76.99058       11.07644       42.18319
H         76.56918       11.44780       40.72122
O         77.40771        7.75179       40.09890
H         77.74874        8.60627       40.46173
H         77.39030        7.14013       40.87720
O         74.97682        6.97436       42.85184
H         75.27796        7.04083       43.79245
H         75.55370        6.27505       42.45384

Ca 1.0



