%chk=apoCaM-CA-Ng.loop2.water4.frame1018.chk
%nprocshared=20
%mem=10GB
%nosave
#b3lyp/svp scf=(tight,noincore,xqc) Test 
#IOP(5/87=12) Density=Current Pop=(MK,readradii) iop(6/33=2) iop(6/42=6)

apoCaM-CA-Ng.loop2.water4.frame1018 

   -2  1 
C         49.38235       47.53915       53.20896
C         48.45433       46.95225       52.18198
O         48.62577       45.78347       51.86578
H         49.92527       48.40433       52.77745
H         48.85192       47.83585       54.12755
H         50.12981       46.77753       53.51912
N         47.46650       47.65825       51.55735
C         47.11402       49.06493       51.79872
C         46.17257       49.58666       50.70510
O         45.85831       48.85250       49.78053
C         46.44185       49.24914       53.19026
C         45.18589       48.44217       53.34943
O         45.23297       47.22276       53.33568
O         44.00617       49.06557       53.53520
H         46.94960       47.13594       50.83360
H         48.03203       49.69009       51.74871
H         46.19856       50.31930       53.34850
H         47.11588       48.98500       54.01635
N         45.69453       50.86752       50.75274
C         44.69785       51.45340       49.85424
C         43.78390       50.43269       49.17440
O         43.64160       50.46405       47.95905
C         45.40492       52.38480       48.85959
H         46.03960       51.49192       51.49663
H         44.01551       52.06606       50.48380
H         46.09307       51.79546       48.21431
H         44.66784       52.90798       48.21421
H         46.00121       53.14915       49.40175
N         43.14718       49.47485       49.91710
C         42.29204       48.44525       49.32684
C         41.03411       48.20874       50.16330
O         40.84600       48.86019       51.18173
C         43.11300       47.16287       49.03960
C         43.61212       46.40978       50.23895
O         44.30191       45.41567       50.07884
O         43.28824       46.79027       51.48331
H         43.35162       49.42436       50.92639
H         41.94640       48.79058       48.32801
H         43.98744       47.45136       48.41610
H         42.50256       46.45900       48.43675
N         40.10404       47.30178       49.75098
C         38.81855       47.07930       50.40012
C         38.87306       46.49558       51.80026
O         39.94087       46.30359       52.36308
H         40.27877       46.78184       48.87896
H         38.23974       46.36637       49.77529
H         38.25725       48.03854       50.43259
N         37.69018       46.18665       52.41049
C         37.53743       45.69381       53.77600
C         36.92027       44.29391       53.78071
O         35.84213       44.10064       53.23611
C         36.67174       46.71409       54.54937
C         36.27946       46.25798       55.93323
N         34.97138       46.18770       56.28221
O         37.14181       45.96064       56.74591
H         36.82198       46.34067       51.87345
H         38.52105       45.63780       54.28606
H         35.74817       46.92830       53.96892
H         37.24275       47.66528       54.63331
H         34.23003       46.45025       55.61502
H         34.69262       45.88164       57.22569
N         37.56808       43.27441       54.42588
C         37.09857       41.89415       54.53770
C         37.06951       41.15849       53.20895
O         37.27554       41.79310       52.18419
H         38.45038       43.49231       54.91191
H         36.08860       41.87225       55.00435
H         37.80327       41.36195       55.20790
N         36.79531       39.81932       53.09981
C         36.63165       38.86689       54.20210
C         37.42202       37.59620       53.88656
O         37.12167       36.96301       52.88301
C         35.13292       38.52804       54.37753
C         34.90614       37.45592       55.45761
O         34.44873       39.70081       54.73533
H         36.70564       39.43932       52.14371
H         36.98694       39.29873       55.16006
H         34.73843       38.14824       53.40615
H         33.47941       39.51565       54.63016
H         35.39544       36.49874       55.17648
H         35.30946       37.79286       56.43566
H         33.81996       37.25317       55.56590
N         38.43187       37.15492       54.69807
C         39.18474       35.92534       54.43297
C         39.13785       35.01858       55.66852
O         39.72020       35.40644       56.67154
C         40.66578       36.26690       54.07344
C         40.71934       37.23413       52.86079
C         41.46705       34.97660       53.78618
C         42.12916       37.72309       52.52274
H         38.69197       37.71822       55.52184
H         38.77433       35.40450       53.54746
H         41.12887       36.78201       54.94503
H         40.12507       38.14280       53.09450
H         40.27353       36.74891       51.96495
H         41.44614       34.28979       54.65746
H         41.04863       34.44358       52.90546
H         42.53633       35.19812       53.59927
H         42.78370       36.89239       52.19245
H         42.07266       38.45480       51.68962
H         42.58211       38.22566       53.40405
N         38.53584       33.78787       55.70887
C         37.63751       33.24425       54.69314
C         38.32584       32.27458       53.74996
O         39.48514       31.93427       53.95297
C         36.40669       32.58789       55.37277
C         36.70152       31.35564       56.20367
O         35.68934       30.73595       56.83911
O         37.83123       30.90198       56.30349
H         38.65260       33.24639       56.57949
H         37.23668       34.07501       54.08015
H         35.66872       32.29401       54.59721
H         35.92379       33.34387       56.02864
N         37.65332       31.82777       52.65121
C         38.22949       30.93546       51.65117
C         37.33153       30.93416       50.41045
O         36.15069       30.64388       50.57187
C         38.39379       29.49638       52.19086
C         39.31790       28.71028       51.28630
C         38.84592       27.65809       50.48464
C         40.68486       29.04777       51.23851
C         39.72673       26.96836       49.64091
C         41.55972       28.35282       50.40178
C         41.08099       27.31552       49.60027
H         36.70771       32.20992       52.48731
H         39.23739       31.30796       51.41746
H         37.39046       29.02364       52.27807
H         38.84779       29.48948       53.20432
H         37.79950       27.38229       50.49879
H         41.07345       29.85144       51.85230
H         39.36088       26.16527       49.01475
H         42.60819       28.62198       50.37422
H         41.76084       26.78179       48.94847
N         37.76904       31.22998       49.14527
C         39.15388       31.43527       48.74746
C         39.63143       32.84927       49.08232
O         39.51986       33.23349       50.23630
C         39.11527       31.05703       47.25656
C         37.77595       31.62753       46.83191
C         36.88762       31.19346       47.99309
H         39.82649       30.71132       49.24807
H         39.99593       31.33463       46.64483
H         39.02057       29.94775       47.18427
H         37.86353       32.73621       46.84004
H         37.40255       31.30891       45.83572
H         36.01539       31.87729       48.09029
H         36.53445       30.14666       47.85923
N         40.22095       33.67552       48.16391
C         40.75634       34.98328       48.52959
C         42.23755       35.08288       48.14127
O         42.57465       35.96004       47.35750
C         39.91622       36.08355       47.84063
C         38.41714       35.96686       48.15504
C         37.65357       37.08189       47.50236
O         36.80238       36.83625       46.66239
O         37.90072       38.36042       47.84577
H         40.30829       33.39424       47.17937
H         40.68388       35.16051       49.62519
H         40.04488       36.01481       46.73737
H         40.28874       37.07490       48.18332
H         38.24589       36.00437       49.25173
H         38.03599       34.99529       47.77203
N         43.21379       34.24809       48.61197
C         43.03973       33.15544       49.54579
H         43.69885       33.31251       50.42405
H         42.01547       33.06319       49.92365
H         43.32875       32.20331       49.05063
H         44.17687       34.39541       48.27131
Ca        42.09315       47.88564       53.76959
O         40.37613       49.81879       55.23346
H         41.13885       50.42051       55.04077
H         39.75528       49.95378       54.47403
O         43.09211       48.38123       56.44820
H         43.53463       47.76221       57.08082
H         43.55998       49.24517       56.56920
O         40.50939       46.43956       55.84753
H         40.47480       46.96255       56.68702
H         40.21868       45.52946       56.10668
O         42.85509       44.86795       54.26603
H         42.27774       44.06731       54.18840
H         43.10774       44.90077       55.22296

Ca 1.0



