%chk=apoCaM-CA-Ng.loop1.water5.frame616.chk
%nprocshared=20
%mem=10GB
%nosave
#b3lyp/svp scf=(tight,noincore,xqc) Test 
#IOP(5/87=12) Density=Current Pop=(MK,readradii) iop(6/33=2) iop(6/42=6)

apoCaM-CA-Ng.loop1.water5.frame616 

   0  1 
C         60.66985       13.96375      103.37148
C         60.01680       15.24100      103.81781
O         60.18540       16.25308      103.15278
H         61.77258       14.09087      103.35501
H         60.42370       13.12143      104.05243
H         60.31764       13.70352      102.35151
N         59.25158       15.26728      104.94565
C         58.57433       16.46732      105.43008
C         59.55661       17.60408      105.66488
O         60.50800       17.44482      106.41415
C         57.72763       16.16470      106.68963
C         58.45560       15.56843      107.87140
O         59.64979       15.31982      107.83411
O         57.75973       15.27802      108.98659
H         59.13716       14.38802      105.47235
H         57.85011       16.79161      104.65051
H         56.93337       15.44321      106.40115
H         57.23099       17.10564      107.01308
N         59.40043       18.78159      104.99524
C         60.36820       19.87026      105.07084
C         60.43076       20.56329      106.42917
O         61.30158       21.40534      106.60171
C         60.14487       20.84614      103.89119
C         58.87825       21.71566      103.93010
C         58.66679       22.34705      102.54046
C         57.51903       23.36166      102.51642
N         57.26307       23.81708      101.14787
H         58.61320       18.86333      104.33438
H         61.36510       19.41229      104.89274
H         60.12291       20.21276      102.97746
H         61.00419       21.53778      103.80180
H         59.00459       22.49619      104.71224
H         57.97910       21.11123      104.17226
H         58.44179       21.52506      101.82401
H         59.59240       22.86137      102.20038
H         57.79431       24.23133      103.15408
H         56.59152       22.90269      102.92264
H         56.92476       23.01570      100.56578
H         56.52343       24.55571      101.16052
H         58.13231       24.21372      100.72195
N         59.55742       20.27255      107.44127
C         59.62108       20.91579      108.75497
C         60.88456       20.51048      109.59182
O         61.73685       19.67995      108.85971
C         58.28595       20.68505      109.53045
C         57.74619       19.28947      109.83857
O         56.62904       19.22349      110.32461
O         58.39062       18.12367      109.61237
H         58.78873       19.61241      107.26140
H         59.66449       22.01322      108.57068
H         57.50312       21.16615      108.90360
H         58.30645       21.23524      110.49089
N         61.69224       21.62451      110.09526
C         61.01899       22.70018      110.82740
C         61.45123       23.99194      110.20448
O         60.60568       24.76745      109.78067
H         62.45159       21.23195      110.70221
H         61.32958       22.69378      111.89705
H         59.91812       22.62684      110.81072
N         62.78068       24.27636      110.10436
C         63.29764       25.51718      109.54695
C         64.21415       25.25742      108.35970
O         64.52742       24.11405      108.05533
C         64.10365       26.23996      110.64721
C         63.28037       26.49096      111.87839
O         63.63842       25.93262      113.05108
O         62.28764       27.19831      111.82391
H         63.46193       23.59121      110.46802
H         62.46455       26.16972      109.20464
H         64.49387       27.21120      110.27861
H         64.97383       25.60366      110.92734
N         64.72921       26.32018      107.68093
C         65.78720       26.23205      106.68885
C         65.46792       25.54464      105.38053
O         66.37853       25.51425      104.56166
H         64.43391       27.26842      107.95838
H         66.66233       25.72724      107.15199
H         66.09717       27.26824      106.43014
N         64.26203       24.97741      105.07597
C         64.02371       24.32402      103.78685
C         63.82044       22.83291      103.94490
O         63.68743       22.34231      105.06080
C         62.85356       24.98569      103.01289
C         61.50299       24.86572      103.72608
O         63.13157       26.34504      102.80039
H         63.50234       24.99018      105.77129
H         64.92520       24.42119      103.14267
H         62.72992       24.47489      102.02819
H         63.70918       26.39920      101.99434
H         60.70719       25.31535      103.09465
H         61.24482       23.80354      103.89520
H         61.51226       25.39207      104.70139
N         63.83617       22.04140      102.83738
C         63.70543       20.58944      102.86977
C         64.83588       20.02046      103.70496
O         64.55379       19.30268      104.64972
C         63.64810       19.98349      101.43382
C         62.46184       20.59592      100.62707
C         63.48477       18.44903      101.51835
C         62.45930       20.20900       99.14842
H         63.99409       22.50434      101.92948
H         62.75254       20.31791      103.35075
H         64.60090       20.22375      100.91347
H         62.50557       21.70178      100.63643
H         61.49452       20.30425      101.08684
H         64.32251       17.98691      102.07936
H         62.53285       18.18988      102.03384
H         63.48026       17.98134      100.51491
H         62.32518       19.11983       99.00403
H         61.61709       20.72379       98.63859
H         63.40847       20.53444       98.67160
N         66.13663       20.32657      103.42072
C         67.26440       19.88765      104.24092
C         68.58412       20.15725      103.52596
O         68.89556       21.30104      103.23244
C         67.29074       20.55626      105.66044
C         67.35359       22.10161      105.65423
O         66.22372       20.10448      106.45854
H         66.32776       20.89399      102.58182
H         67.18568       18.78780      104.38590
H         68.21369       20.21034      106.17624
H         65.48551       20.76775      106.42943
H         68.27663       22.48401      105.18079
H         66.47483       22.52865      105.12956
H         67.35631       22.47603      106.70013
N         69.42480       19.12274      103.23748
C         70.78242       19.31055      102.72504
C         71.40113       17.96485      102.36997
O         71.87771       17.80562      101.25403
C         71.65650       20.05855      103.77826
C         73.08947       20.29245      103.28369
O         71.68602       19.34108      104.98608
H         69.09468       18.16638      103.43179
H         70.74753       19.92691      101.79840
H         71.20439       21.05915      103.95857
H         71.92692       19.98484      105.70297
H         73.61476       19.32882      103.11450
H         73.07951       20.87453      102.33826
H         73.65924       20.86771      104.04445
N         71.40891       16.94577      103.27255
C         72.03109       15.65125      103.02925
C         71.46082       14.64053      104.00860
O         71.47728       14.88134      105.20910
C         73.56184       15.78628      103.14851
C         74.29564       14.44643      102.97439
C         75.81226       14.64509      103.08093
C         76.55596       13.30382      103.04948
N         77.99910       13.50725      103.17502
H         70.93288       17.09486      104.17517
H         71.78225       15.30316      102.00143
H         73.81258       16.20470      104.14808
H         73.92051       16.49857      102.37343
H         74.04656       13.99575      101.98820
H         73.96897       13.75025      103.77706
H         76.04697       15.15287      104.04175
H         76.15972       15.28864      102.24253
H         76.33813       12.77017      102.09793
H         76.20429       12.67150      103.89557
H         78.21625       14.00585      104.06888
H         78.47770       12.57779      103.18410
H         78.35480       14.06557      102.36542
N         70.92921       13.47475      103.54747
C         70.25326       12.51797      104.41158
C         68.92448       13.08624      104.90281
O         68.77600       13.18063      106.11260
C         70.07728       11.14467      103.72268
C         71.44058       10.46291      103.51237
C         71.28852        9.13346      102.83456
O         71.67244        8.00619      103.46362
O         70.83262        9.06883      101.70408
H         71.01607       13.26022      102.54209
H         70.89331       12.31912      105.30245
H         69.54787       11.23703      102.75470
H         69.46953       10.48471      104.38070
H         71.91992       10.31043      104.50526
H         72.11042       11.09978      102.89682
N         67.89523       13.49360      104.09643
C         67.87634       13.51086      102.64677
H         67.68698       14.54801      102.29871
H         68.81394       13.18069      102.18092
H         67.05488       12.85952      102.28137
H         67.03819       13.84088      104.55484
Ca        60.54103       17.87432      109.16415
O         61.06036       14.71621      110.58508
H         60.17971       14.70041      111.03740
H         61.71137       14.51412      111.30314
O         60.37999       17.45985      112.14208
H         59.48343       17.87810      112.17988
H         60.99753       18.16691      112.45627
O         63.44295       16.91271      110.64393
H         63.62632       16.26701      111.37177
H         64.20334       17.54577      110.67774
O         62.89965       15.51305      107.72511
H         62.95432       14.52463      107.74328
H         63.05094       15.75307      106.77637
O         64.17489       18.36321      107.84891
H         63.64789       18.64413      107.05930
H         64.35976       19.20520      108.33636

Ca 1.0



