%chk=apoCaM-CA-Ng.loop3.water4.frame198.chk
%nprocshared=20
%mem=10GB
%nosave
#b3lyp/svp scf=(tight,noincore,xqc) Test 
#IOP(5/87=12) Density=Current Pop=(MK,readradii) iop(6/33=2) iop(6/42=6)

apoCaM-CA-Ng.loop3.water4.frame198 

   0  1 
C        -12.72545       28.51961        4.56831
C        -13.51391       28.88609        3.34480
O        -13.66811       30.06884        3.08361
H        -11.69774       28.93296        4.48354
H        -13.21295       28.94578        5.47000
H        -12.65219       27.41859        4.68958
N        -14.04604       27.91805        2.54146
C        -14.78967       28.18771        1.31167
C        -16.07340       28.96776        1.56463
O        -16.57482       29.58961        0.63737
C        -13.88300       28.87579        0.26361
C        -12.66706       28.03824       -0.02981
O        -11.43423       28.51210        0.22698
O        -12.79303       26.91833       -0.49814
H        -13.90594       26.92980        2.79956
H        -15.10386       27.21833        0.86670
H        -13.57999       29.87809        0.62111
H        -14.43749       29.02414       -0.68788
N        -16.69393       28.93821        2.78144
C        -17.91831       29.67469        3.06897
C        -17.63748       30.67742        4.16024
O        -18.35894       30.72851        5.15013
C        -19.03261       28.69598        3.50304
C        -19.46823       27.69846        2.42539
C        -20.19443       28.39024        1.26496
C        -20.79421       27.36188        0.30148
N        -21.54577       28.02693       -0.76166
H        -16.28410       28.38396        3.54803
H        -18.25043       30.26343        2.18870
H        -19.93466       29.26261        3.82586
H        -18.66296       28.12161        4.38191
H        -20.18277       26.99807        2.91065
H        -18.60032       27.10829        2.05850
H        -19.49746       29.05416        0.71137
H        -21.02401       29.00533        1.67811
H        -21.48249       26.69089        0.86327
H        -19.98299       26.74349       -0.14230
H        -20.91139       28.64297       -1.31972
H        -21.96226       27.30339       -1.39054
H        -22.31902       28.59892       -0.34924
N        -16.56310       31.50487        4.06033
C        -16.26563       32.45860        5.10848
C        -17.25152       33.61225        5.02751
O        -17.73743       33.91253        3.94462
C        -14.81328       32.94649        5.00784
C        -14.41116       33.66331        6.26223
O        -14.38485       33.06169        7.32451
O        -14.07452       34.95929        6.23693
H        -15.92327       31.41287        3.25689
H        -16.35418       31.92088        6.08075
H        -14.69387       33.57870        4.10591
H        -14.12646       32.07864        4.90425
N        -17.57700       34.31716        6.13969
C        -18.50536       35.43524        6.14287
C        -18.07767       36.54336        5.20533
O        -18.88790       36.97171        4.39578
H        -17.15251       34.04018        7.03503
H        -18.55609       35.84472        7.17419
H        -19.52477       35.08319        5.86870
N        -16.81161       37.04548        5.25116
C        -16.34730       38.14822        4.40851
C        -15.30866       37.70835        3.37672
O        -14.76548       38.56677        2.69400
C        -15.81381       39.30463        5.28185
C        -14.54687       38.96860        6.02860
N        -13.39133       39.60565        5.73545
O        -14.56081       38.12403        6.90871
H        -16.14766       36.60979        5.90538
H        -17.19567       38.57362        3.82880
H        -16.59260       39.62984        6.00505
H        -15.61548       40.16685        4.60864
H        -13.34836       40.32115        4.99578
H        -12.53088       39.37236        6.24436
N        -15.03371       36.39349        3.14789
C        -14.10265       35.94235        2.12621
C        -12.66430       36.15625        2.53074
O        -11.92335       36.81137        1.81259
H        -15.55758       35.67186        3.65908
H        -14.34020       36.42525        1.15212
H        -14.22588       34.84656        1.98964
N        -12.19985       35.56852        3.66777
C        -10.80933       35.57457        4.10431
C        -10.62445       36.33162        5.39269
O        -11.58295       36.82910        5.96592
C        -10.34300       34.11827        4.30126
C        -10.26998       33.39690        2.99136
C         -9.33454       33.80370        2.02625
C        -11.11439       32.31352        2.72394
C         -9.24779       33.13675        0.80510
C        -11.02687       31.65056        1.49943
C        -10.09442       32.05961        0.53433
O        -10.00143       31.42897       -0.65264
H        -12.86781       35.04386        4.23821
H        -10.16860       36.09524        3.36026
H        -11.04568       33.61618        5.00552
H         -9.33290       34.05929        4.75643
H         -8.66776       34.63390        2.22377
H        -11.83947       31.98725        3.45911
H         -8.52097       33.45809        0.07060
H        -11.68202       30.82108        1.30657
H        -10.57528       30.68778       -0.88855
N         -9.35539       36.50001        5.86870
C         -9.02769       37.33547        7.01377
C         -9.52147       38.72972        6.67420
O        -10.36970       39.25152        7.37993
C         -7.49067       37.28694        7.30328
C         -6.98082       35.85221        7.64308
C         -7.07730       38.27604        8.40595
C         -7.48920       35.26655        8.96526
H         -8.58253       36.07784        5.33491
H         -9.55990       36.95945        7.90841
H         -6.96106       37.59726        6.37578
H         -5.87052       35.87197        7.69382
H         -7.24857       35.14634        6.83018
H         -7.59588       38.05818        9.36167
H         -5.97852       38.22695        8.56524
H         -7.32476       39.31405        8.11304
H         -8.59175       35.19433        8.97886
H         -7.07590       34.24368        9.09546
H         -7.15037       35.87426        9.82862
N         -9.08935       39.34551        5.53776
C         -9.67898       40.56915        5.00363
C         -9.68380       41.71188        5.99179
O        -10.65681       42.45311        6.01117
C         -8.98389       40.98606        3.70254
O         -7.63276       41.26742        3.94455
H         -8.35643       38.87743        4.98288
H        -10.73898       40.35175        4.74169
H         -9.48791       41.88658        3.28625
H         -9.07454       40.14805        2.97354
H         -7.21128       41.37571        3.05320
N         -8.67162       41.87427        6.89038
C         -8.66277       42.91249        7.91067
C         -9.95726       42.87856        8.70915
O        -10.67287       43.87190        8.75771
C         -8.38714       44.28201        7.27696
H         -7.88873       41.20556        6.88436
H         -7.81645       42.71285        8.60576
H         -9.18873       44.57079        6.56667
H         -8.31125       45.05577        8.07131
H         -7.41909       44.25176        6.73237
N        -10.31565       41.74441        9.37008
C        -11.53527       41.65696       10.17067
C        -11.47788       40.50919       11.15766
O        -10.59496       39.66814       11.06139
C        -12.77230       41.52151        9.26900
H         -9.65600       40.95223        9.33864
H        -11.59993       42.58059       10.78726
H        -12.70882       40.58585        8.67184
H        -13.70135       41.48460        9.87672
H        -12.85081       42.37547        8.56539
N        -12.34229       40.47702       12.21537
C        -12.28006       39.47837       13.28015
C        -10.85108       39.37518       13.79457
O        -10.27215       38.29665       13.78205
C        -12.83532       38.12546       12.78681
C        -14.32330       38.22867       12.41663
C        -14.82456       36.93553       11.85153
O        -14.35414       36.50649       10.81280
O        -15.80535       36.25224       12.47100
H        -13.02381       41.24510       12.31931
H        -12.92358       39.81265       14.12383
H        -12.73256       37.36072       13.58812
H        -12.24307       37.78643       11.91620
H        -14.48663       39.02172       11.65607
H        -14.90493       38.48634       13.32869
N        -10.20193       40.50138       14.20116
C         -8.80880       40.51959       14.59827
H         -8.24743       41.19129       13.91386
H         -8.72275       40.90504       15.63389
H         -8.33962       39.51431       14.55037
H        -10.70502       41.40146       14.19116
Ca       -13.40793       35.84520        8.17357
O        -13.27679       33.79819       10.36229
H        -12.95688       32.88117       10.55021
H        -14.11388       33.88148       10.88400
O        -10.90559       34.29788        8.02079
H        -10.60167       33.35677        7.99047
H        -10.91081       34.52780        8.98415
O        -16.22051       35.62276        8.73167
H        -16.82195       36.16316        9.30098
H        -16.16865       34.74245        9.18270
O        -11.80492       37.54904        9.52486
H        -10.83330       37.71498        9.57983
H        -12.14124       38.18198        8.84306

Ca 1.0



