%chk=apoCaM-CA-Ng.loop3.water5.frame1129.chk
%nprocshared=20
%mem=10GB
%nosave
#b3lyp/svp scf=(tight,noincore,xqc) Test 
#IOP(5/87=12) Density=Current Pop=(MK,readradii) iop(6/33=2) iop(6/42=6)

apoCaM-CA-Ng.loop3.water5.frame1129 

   0  1 
C         63.54543       82.89321       66.14136
C         62.32317       82.31237       66.78762
O         61.43756       81.85244       66.08272
H         64.44563       82.33739       66.47693
H         63.47680       82.82631       65.03394
H         63.64546       83.96098       66.42840
N         62.22644       82.26566       68.14451
C         61.07212       81.70701       68.84053
C         60.56072       82.60156       69.97001
O         59.66532       82.16410       70.67845
C         61.38128       80.26815       69.29603
C         62.48748       80.11784       70.30294
O         62.79797       78.99902       70.67814
O         63.13913       81.18522       70.80213
H         63.03623       82.58250       68.69844
H         60.22260       81.58909       68.13315
H         61.64983       79.68018       68.38974
H         60.45545       79.81907       69.71841
N         61.01721       83.88022       70.16215
C         60.46120       84.80542       71.15216
C         58.96924       84.96401       70.92747
O         58.17992       84.77090       71.84302
C         60.82740       84.39002       72.59720
C         62.32944       84.58067       72.84984
C         62.71976       84.21114       74.28778
C         64.15917       84.63356       74.63639
N         65.16227       84.00246       73.77779
H         61.73425       84.26403       69.53131
H         60.89753       85.81485       70.97925
H         60.51498       83.34316       72.80048
H         60.29208       85.05536       73.31112
H         62.56701       85.65488       72.68405
H         62.91220       83.96586       72.13223
H         62.58769       83.11771       74.44062
H         62.04901       84.74434       74.99702
H         64.35844       84.35505       75.69486
H         64.24900       85.74020       74.55512
H         66.11301       84.28850       74.10607
H         65.08177       82.96172       73.83087
H         65.05606       84.32317       72.78908
N         58.52414       85.28656       69.68088
C         57.11640       85.39306       69.32484
C         56.78068       84.23518       68.40720
O         56.30320       84.43552       67.30054
C         56.80666       86.78221       68.71080
C         57.51752       87.05859       67.40542
O         58.86019       87.12539       67.35278
O         56.87112       87.24692       66.38682
H         59.22561       85.38541       68.93435
H         56.48071       85.28366       70.23085
H         57.08234       87.57628       69.43719
H         55.70984       86.84565       68.53840
N         57.05728       82.96902       68.82172
C         56.89878       81.79041       67.99156
C         55.98408       80.78237       68.63829
O         55.43885       81.05998       69.69797
H         57.44738       82.83176       69.76473
H         57.90037       81.34026       67.86412
H         56.49892       82.04525       66.98834
N         55.73221       79.57152       68.06818
C         56.32747       79.09647       66.81991
C         57.83079       78.86316       67.00597
O         58.18808       78.21283       67.97832
C         55.65390       77.76201       66.41977
C         56.06650       77.29840       65.04429
N         56.77027       76.15598       64.87640
O         55.75049       77.96120       64.06700
H         55.06185       78.95515       68.55625
H         56.10342       79.83009       66.01728
H         54.54912       77.88847       66.40280
H         55.89303       76.99096       67.18443
H         57.04784       75.58193       65.68501
H         57.05004       75.85139       63.93202
N         58.78443       79.28099       66.11943
C         58.48594       79.92669       64.85230
C         59.60861       79.73599       63.86168
O         60.03693       78.60108       63.68809
H         59.76316       79.01143       66.31429
H         58.18952       80.98721       65.00336
H         57.64760       79.39946       64.37629
N         60.10768       80.77542       63.13649
C         61.13587       80.59370       62.10809
C         61.71216       81.92677       61.63164
O         61.16971       82.97935       61.93539
C         60.52696       79.77699       60.92481
C         61.46859       79.43806       59.79276
C         61.18445       79.86693       58.48349
C         62.62202       78.66949       60.02457
C         62.04347       79.54222       57.42933
C         63.48575       78.35512       58.97001
C         63.19849       78.79099       57.66788
O         64.02425       78.49950       56.64271
H         59.72025       81.71002       63.32008
H         61.98153       80.04788       62.58139
H         59.65716       80.34914       60.53142
H         60.13220       78.81032       61.29455
H         60.29538       80.44886       58.27392
H         62.85679       78.32331       61.02279
H         61.81233       79.87803       56.42595
H         64.37774       77.77416       59.16605
H         64.84178       77.99671       56.76712
N         62.87195       81.95083       60.92113
C         63.53344       83.17619       60.46124
C         62.64315       83.92140       59.46276
O         61.60362       83.39402       59.08874
C         64.94573       82.78810       59.89072
C         64.82548       82.00700       58.55446
C         65.92134       83.97172       59.76403
C         66.13456       81.36736       58.09363
H         63.33953       81.04957       60.75789
H         63.68789       83.81671       61.35806
H         65.40091       82.12562       60.66222
H         64.44439       82.67961       57.75545
H         64.09700       81.18505       58.67151
H         65.94863       84.55047       60.71184
H         66.95157       83.60269       59.58546
H         65.67727       84.63322       58.91367
H         65.95362       80.79777       57.15770
H         66.90881       82.13096       57.88086
H         66.50702       80.66365       58.86815
N         62.98937       85.14366       58.96626
C         62.17850       85.81218       57.95570
C         60.94223       86.44120       58.56628
O         60.86132       86.57513       59.77741
C         63.00463       86.87299       57.20440
O         63.47245       87.84990       58.09120
H         63.85674       85.59260       59.27945
H         61.87377       85.05568       57.19870
H         62.37209       87.34128       56.41587
H         63.87428       86.37958       56.71830
H         63.75239       88.62526       57.53856
N         59.95138       86.89610       57.75022
C         58.77471       87.63240       58.19217
C         59.19458       88.93181       58.85446
O         58.67402       89.27837       59.90411
C         57.85950       86.77322       59.08176
H         60.05426       86.75243       56.73412
H         58.19610       87.90132       57.28128
H         58.36463       86.50248       60.02837
H         56.93418       87.33240       59.33746
H         57.57020       85.84073       58.55359
N         60.17359       89.69396       58.28573
C         60.65904       90.95279       58.83384
C         61.16242       90.78183       60.26013
O         60.65734       91.43720       61.16231
C         59.57427       92.03127       58.71392
H         60.62288       89.35550       57.42115
H         61.51614       91.29476       58.21194
H         58.68133       91.78012       59.32273
H         59.97639       93.00917       59.05418
H         59.26541       92.13157       57.65171
N         62.17486       89.90898       60.52816
C         62.71615       89.69034       61.86470
C         64.17742       90.09769       61.89111
O         64.54258       90.94068       62.69893
C         62.51540       88.21435       62.27553
C         62.75064       87.90841       63.77010
C         61.80149       88.63377       64.70519
O         60.82428       87.99360       65.37685
O         61.93105       89.83047       64.89460
H         62.57339       89.37539       59.74660
H         62.16348       90.31909       62.58588
H         63.17676       87.56723       61.65698
H         61.47330       87.91367       62.05685
H         63.79525       88.15211       64.06465
H         62.61308       86.81380       63.90463
N         65.06833       89.56780       61.00497
C         66.45876       89.96794       60.97257
H         66.98203       89.45199       60.13870
H         66.53698       91.06438       60.80787
H         66.95495       89.69818       61.92787
H         64.75151       88.87689       60.30957
Ca        59.53273       86.38036       64.49976
O         57.19952       83.88061       64.53199
H         56.33517       83.56487       64.89491
H         57.38057       83.27458       63.77091
O         58.64120       88.67751       62.86272
H         58.33122       89.55189       62.51881
H         59.26557       88.34407       62.17212
O         56.49532       86.22440       62.48444
H         56.05488       86.68707       61.72846
H         55.86248       85.50676       62.73820
O         59.14892       85.09475       61.98231
H         58.89783       84.27801       61.48373
H         60.08979       85.26872       61.73137
O         60.18405       83.79663       64.42079
H         59.80881       83.58309       65.31090
H         61.15008       83.94993       64.56887

Ca 1.0



