%chk=apoCaM-CA-Ng.loop1.water4.frame520.chk
%nprocshared=20
%mem=10GB
%nosave
#b3lyp/svp scf=(tight,noincore,xqc) Test 
#IOP(5/87=12) Density=Current Pop=(MK,readradii) iop(6/33=2) iop(6/42=6)

apoCaM-CA-Ng.loop1.water4.frame520 

   0  1 
C         82.32040      106.63688       51.99626
C         82.22661      108.05157       51.50050
O         83.17557      108.80211       51.67308
H         81.39049      106.06777       51.78212
H         83.17107      106.12142       51.50509
H         82.47970      106.64052       53.09525
N         81.09295      108.48915       50.88235
C         80.87436      109.85433       50.41006
C         81.81566      110.20087       49.24709
O         82.57713      109.34557       48.81628
C         80.93062      110.83884       51.60918
C         80.12455      112.11017       51.45838
O         80.15671      113.02460       52.44524
O         79.37586      112.28970       50.51018
H         80.31333      107.82358       50.76153
H         79.83538      109.87502       50.01062
H         81.98955      111.07412       51.84414
H         80.48310      110.34252       52.49768
N         81.74922      111.41795       48.63397
C         82.39823      111.76956       47.37488
C         81.90002      110.81678       46.30180
O         82.69300      110.25200       45.56132
C         83.94295      111.81296       47.45205
C         84.47705      112.65974       48.61727
C         85.98013      112.98125       48.47533
C         86.92124      111.77603       48.28259
N         86.92343      110.87033       49.42972
H         81.11508      112.12945       49.00471
H         82.04902      112.79307       47.10853
H         84.29979      112.24335       46.48987
H         84.35703      110.78699       47.55082
H         84.27222      112.13199       49.57418
H         83.94373      113.63457       48.64483
H         86.30538      113.56432       49.36437
H         86.10216      113.63466       47.58407
H         87.95262      112.16730       48.13389
H         86.64993      111.21810       47.36034
H         87.60460      110.09829       49.24394
H         87.22375      111.38300       50.29002
H         85.97696      110.45166       49.57036
N         80.56666      110.52844       46.25008
C         79.97679      109.47723       45.42573
C         78.48285      109.39989       45.75254
O         78.18571      109.08662       46.89804
C         80.63632      108.11395       45.77806
C         80.03265      106.96274       45.04080
O         80.07759      106.92391       43.82343
O         79.46658      105.95179       45.72655
H         79.94515      111.04436       46.89352
H         80.17221      109.70737       44.36365
H         80.53895      107.93148       46.87171
H         81.71661      108.11376       45.53756
N         77.46159      109.68404       44.89061
C         77.54981      110.14570       43.51629
C         76.70711      109.26234       42.63312
O         75.66216      109.70791       42.17953
H         76.50346      109.61404       45.27071
H         78.57520      110.21455       43.11444
H         77.12043      111.17094       43.49447
N         77.10606      107.99494       42.33863
C         76.30848      107.06279       41.54480
C         76.08449      105.72268       42.29954
O         76.69223      105.74850       43.55996
C         76.97139      106.82437       40.17643
C         78.36189      106.25804       40.26276
O         78.56460      105.03085       40.77087
O         79.31165      106.89715       39.83933
H         78.02315      107.68179       42.68373
H         75.31603      107.51182       41.31888
H         77.01485      107.80229       39.64849
H         76.34260      106.13810       39.56852
N         74.65248      105.37473       42.41323
C         74.46923      103.94420       42.70792
C         74.67368      103.57556       44.16177
O         74.65472      102.38960       44.45883
H         74.22086      105.52224       41.47079
H         75.14966      103.34691       42.06693
H         73.43067      103.64122       42.44701
N         74.83999      104.51656       45.13281
C         75.04446      104.17156       46.53345
C         76.33148      103.38166       46.75738
O         77.19361      103.34665       45.89075
C         75.06952      105.46676       47.41026
C         76.27505      106.37965       47.10971
O         73.89570      106.21079       47.21002
H         74.76280      105.51046       44.87924
H         74.18351      103.54299       46.85001
H         75.14515      105.19668       48.48741
H         73.14862      105.67878       47.58727
H         77.23254      105.85711       47.31451
H         76.28006      106.72695       46.05600
H         76.23861      107.27925       47.76004
N         76.55122      102.81240       47.97395
C         77.87596      102.38582       48.42481
C         78.37215      101.05032       47.86303
O         79.53752      100.75404       48.09180
C         77.96979      102.46232       49.98201
C         77.09482      101.38348       50.67633
C         77.62270      103.89596       50.45432
C         77.15395      101.44128       52.20470
H         75.78699      102.88591       48.65884
H         78.59622      103.15170       48.05512
H         79.02951      102.27934       50.26766
H         77.45627      100.38117       50.36035
H         76.03054      101.47292       50.37609
H         78.24888      104.64023       49.91783
H         76.55703      104.14820       50.27787
H         77.82274      104.02518       51.53562
H         76.70199      102.38188       52.58316
H         76.56736      100.60077       52.63084
H         78.20301      101.36513       52.55941
N         77.59151      100.20228       47.12648
C         78.10988       98.96760       46.51346
C         77.46364       97.71739       47.09676
O         76.58546       97.83046       47.94251
C         77.93784       99.01874       44.96895
C         76.47520       99.12170       44.51718
O         78.66065      100.10783       44.45902
H         76.60049      100.44321       46.98414
H         79.19828       98.86104       46.71574
H         78.35540       98.07787       44.54359
H         78.96237       99.85912       43.54551
H         75.87601       98.27677       44.91384
H         76.02165      100.07699       44.84838
H         76.42658       99.08518       43.40868
N         77.85753       96.47770       46.66334
C         77.25221       95.22589       47.11249
C         78.26078       94.22164       47.68060
O         77.81324       93.19809       48.17436
C         76.47354       94.57505       45.93345
C         77.38476       94.09762       44.79061
O         75.54666       95.49007       45.40808
H         78.58932       96.42271       45.94137
H         76.51591       95.44092       47.91783
H         75.93264       93.67073       46.29913
H         74.78406       95.52709       46.04164
H         76.76968       93.63654       43.98900
H         77.95330       94.93843       44.34358
H         78.10160       93.32930       45.15054
N         79.61697       94.41054       47.61129
C         80.60019       93.40798       48.04114
C         82.01189       93.95948       47.87589
O         82.34446       94.43425       46.79869
C         80.45748       92.08282       47.24139
C         81.47664       91.03310       47.72109
C         81.23254       89.64847       47.10526
C         82.30583       88.61766       47.50987
N         82.36060       88.38624       48.95624
H         79.97387       95.28923       47.21506
H         80.42800       93.17153       49.11432
H         80.58464       92.26139       46.15075
H         79.44677       91.65977       47.40284
H         81.39490       90.94956       48.82467
H         82.49710       91.37649       47.45229
H         81.24623       89.73592       45.99732
H         80.23052       89.27796       47.41432
H         83.30217       88.95524       47.14906
H         82.07133       87.65536       47.00386
H         82.65972       89.24704       49.46291
H         81.42892       88.07327       49.31174
H         83.06840       87.64255       49.15440
N         82.91262       93.88158       48.90010
C         84.25856       94.43860       48.80492
C         84.18480       95.96112       48.72542
O         84.63388       96.49032       47.71850
C         85.18019       93.96195       49.95937
C         85.76466       92.55272       49.75445
C         84.73512       91.47002       49.67346
O         84.67344       90.76612       48.67889
O         83.90338       91.24344       50.70751
H         82.63046       93.40383       49.76836
H         84.74103       94.07942       47.86638
H         84.66871       94.00642       50.93835
H         86.06662       94.63271       49.99801
H         86.44188       92.32226       50.60474
H         86.37775       92.55069       48.82538
N         83.63951       96.76488       49.68674
C         83.06044       96.30969       50.93241
H         82.22262       95.60898       50.74415
H         83.82976       95.84947       51.57777
H         82.65990       97.17917       51.49507
H         83.62603       97.78217       49.51415
Ca        78.52715      104.40136       43.48176
O         80.19410      102.43977       41.69340
H         80.38910      103.12821       41.00966
H         80.66340      101.63092       41.37046
O         77.39412      102.04948       42.49366
H         77.21124      102.26006       41.54420
H         76.72256      101.36600       42.73267
O         81.80746      104.74369       42.94244
H         81.51479      105.20717       42.11748
H         82.37088      105.40760       43.41366
O         80.46626      102.50578       45.13362
H         80.32683      101.68412       45.66640
H         81.36650      102.81864       45.40001

Ca 1.0



