%chk=apoCaM-CA-Ng.loop4.water4.frame970.chk
%nprocshared=20
%mem=10GB
%nosave
#b3lyp/svp scf=(tight,noincore,xqc) Test 
#IOP(5/87=12) Density=Current Pop=(MK,readradii) iop(6/33=2) iop(6/42=6)

apoCaM-CA-Ng.loop4.water4.frame970 

   -3  1 
C         84.32789       14.74370       52.21779
C         84.33601       14.62448       53.71250
O         83.93811       15.56412       54.38539
H         85.36550       14.64165       51.83460
H         83.69448       13.94624       51.77789
H         83.93199       15.73340       51.90314
N         84.79413       13.48124       54.30288
C         84.92078       13.28783       55.74878
C         83.58554       13.28294       56.48598
O         83.60353       13.19927       57.70570
C         85.90624       14.32140       56.34229
C         87.21872       14.25267       55.61353
O         87.86595       13.21742       55.60624
O         87.65402       15.31582       54.91381
H         85.11701       12.71432       53.69279
H         85.36842       12.28407       55.92747
H         86.08109       14.11591       57.42056
H         85.49286       15.34776       56.26123
N         82.39204       13.28574       55.82333
C         81.09507       13.19666       56.48858
C         80.72106       11.72255       56.54729
O         80.59651       11.12415       55.48742
C         80.07343       14.10441       55.71945
C         80.44612       15.58726       55.98746
C         78.59817       13.82768       56.07184
C         79.58213       16.61846       55.26441
H         82.39391       13.21894       54.79552
H         81.18080       13.57678       57.52039
H         80.16224       13.88126       54.63218
H         81.50013       15.76050       55.68255
H         80.36364       15.78413       57.07740
H         78.34923       14.11145       57.10726
H         77.92873       14.40821       55.40480
H         78.34653       12.76043       55.90055
H         78.52646       16.56466       55.60026
H         79.95325       17.63616       55.51225
H         79.63851       16.47188       54.16664
N         80.58839       11.01771       57.71995
C         80.66956       11.56670       59.08162
C         80.73854       10.45201       60.11427
O         79.88181        9.57772       60.09924
C         79.42586       12.42322       59.39453
C         79.42120       12.93621       60.80677
O         78.41822       12.59398       61.63740
O         80.32108       13.65810       61.20594
H         80.42631       10.00206       57.62485
H         81.58931       12.17895       59.19158
H         78.50956       11.81438       59.22712
H         79.38883       13.29968       58.74115
N         81.70824       10.45924       61.08065
C         81.81019        9.42259       62.09653
C         81.68967        9.90746       63.53261
O         81.69760        9.03891       64.39371
H         82.40735       11.21779       61.08948
H         82.79408        8.91765       61.98751
H         81.02681        8.65095       61.94777
N         81.62547       11.22754       63.89957
C         81.60491       11.63852       65.31001
C         80.47742       12.59593       65.69242
O         80.33935       12.84142       66.88277
C         82.99519       12.17043       65.72358
C         83.54748       13.24780       64.82721
O         82.92763       14.43084       64.69889
O         84.58552       13.05239       64.21574
H         81.68838       11.95877       63.17716
H         81.42705       10.75216       65.95849
H         83.69974       11.31047       65.68633
H         82.97054       12.52785       66.77665
N         79.60949       13.14657       64.79465
C         78.48093       13.97804       65.20920
C         78.85292       15.30038       65.86807
O         77.94498       15.97912       66.32620
H         79.70528       12.92984       63.79610
H         77.86109       13.38889       65.92049
H         77.84688       14.21113       64.32616
N         80.14165       15.75116       65.93412
C         80.56630       16.99733       66.57461
C         80.01094       18.25357       65.90514
O         80.26510       19.33766       66.41023
C         80.30030       16.96154       68.09685
C         81.08289       15.81246       68.75732
C         80.91502       15.80269       70.25300
N         80.39789       14.72243       70.88374
O         81.26799       16.77336       70.90624
H         80.87897       15.18476       65.51222
H         81.67107       17.08678       66.46375
H         79.21581       16.86658       68.31333
H         80.65804       17.91638       68.54140
H         82.16658       15.92301       68.53305
H         80.74256       14.84679       68.33631
H         80.10384       13.88898       70.35376
H         80.29713       14.71547       71.90940
N         79.34337       18.19760       64.71678
C         78.91522       19.37557       63.96271
C         79.73601       19.52851       62.68173
O         79.51033       20.48571       61.95252
C         77.39016       19.30052       63.65335
C         76.98722       18.02406       62.88663
C         76.56732       19.41365       64.94251
H         79.20000       17.28409       64.27077
H         79.10347       20.30513       64.54323
H         77.12355       20.17563       63.01999
H         75.90834       18.06129       62.62584
H         77.56680       17.92753       61.94488
H         77.14234       17.11102       63.49948
H         75.48179       19.41197       64.70505
H         76.78411       18.56959       65.63059
H         76.80309       20.36838       65.45921
N         80.70098       18.62713       62.34341
C         81.49006       18.66141       61.12132
C         82.98194       18.63953       61.46996
O         83.32978       18.52236       62.63904
C         81.01807       17.43011       60.30517
C         81.82354       17.06239       59.09267
N         82.43010       15.85334       59.03189
O         81.91879       17.84026       58.15513
H         80.87905       17.81799       62.95483
H         81.29665       19.58707       60.53423
H         79.96522       17.60520       59.98928
H         81.01207       16.55129       60.98463
H         82.34431       15.17564       59.80555
H         82.98535       15.59036       58.20819
N         83.92266       18.74397       60.48845
C         85.36263       18.64230       60.70286
C         86.06658       19.85370       60.09486
O         85.39757       20.68928       59.49839
C         85.79842       17.30527       60.05007
C         87.23381       16.89297       60.26380
C         87.74398       16.72975       61.56391
C         88.06992       16.63691       59.16272
C         89.06827       16.32662       61.75783
C         89.39079       16.22421       59.36137
C         89.89526       16.06922       60.65558
O         91.17114       15.66853       60.82703
H         83.61125       18.85961       59.51549
H         85.59093       18.60506       61.78939
H         85.56438       17.34618       58.96241
H         85.17399       16.49758       60.49102
H         87.11912       16.91483       62.42794
H         87.69918       16.74479       58.15062
H         89.44818       16.20904       62.76480
H         90.02399       16.01819       58.50985
H         91.55754       15.54280       61.70542
N         87.42170       20.00089       60.16973
C         88.13687       21.07468       59.49023
C         89.62141       20.74637       59.44441
O         90.25990       20.83146       60.48482
C         87.84412       22.45241       60.15522
C         88.56169       23.66657       59.52872
C         90.02501       23.72909       59.87109
O         90.41063       23.81095       61.16028
O         90.86799       23.73196       58.98881
H         87.97384       19.28471       60.65964
H         87.75111       21.10710       58.46497
H         88.07530       22.41724       61.24265
H         86.75687       22.64799       60.06052
H         88.10915       24.59283       59.94436
H         88.40389       23.67100       58.42852
N         90.27033       20.32354       58.31316
C         89.64347       19.98735       57.02934
C         88.97920       21.16343       56.34495
O         89.61130       22.19031       56.14041
C         90.66608       19.39938       56.03426
C         91.17174       18.01715       56.45878
C         92.08409       17.45692       55.40851
O         91.78269       16.43268       54.82033
O         93.23401       18.08573       55.10104
H         91.28411       20.15157       58.40404
H         88.87970       19.19686       57.20368
H         91.51218       20.10775       55.88943
H         90.15642       19.26131       55.05268
H         90.29539       17.34173       56.57430
H         91.71408       18.06516       57.42538
N         87.69530       21.02644       55.90061
C         86.97130       22.04644       55.17594
H         86.03226       22.28138       55.71869
H         87.56106       22.97734       55.05425
H         86.71081       21.65603       54.16850
H         87.20251       20.13299       56.05459
Ca        89.45956       15.11759       53.57246
O         92.33708       14.20153       52.80128
H         93.03953       14.83050       53.10283
H         92.44472       14.16355       51.81805
O         87.96346       17.78881       53.07098
H         88.07960       17.84858       54.05249
H         88.63988       18.41165       52.70435
O         89.89448       12.06158       53.28537
H         90.11466       11.59001       52.44315
H         90.66721       11.88508       53.87880
O         90.89967       13.85463       56.13366
H         91.72618       14.26474       56.49218
H         90.17769       14.21294       56.70819

Ca 1.0



