%chk=apoCaM-CA-Ng.loop4.water4.frame410.chk
%nprocshared=20
%mem=10GB
%nosave
#b3lyp/svp scf=(tight,noincore,xqc) Test 
#IOP(5/87=12) Density=Current Pop=(MK,readradii) iop(6/33=2) iop(6/42=6)

apoCaM-CA-Ng.loop4.water4.frame410 

   -3  1 
C        107.51903       75.89482       92.06619
C        108.70367       75.00871       92.30317
O        109.08428       74.27714       91.40127
H        106.71337       75.63981       92.78525
H        107.81506       76.95570       92.20535
H        107.13250       75.76660       91.03190
N        109.35948       75.05302       93.49954
C        110.53648       74.25531       93.82446
C        111.63563       74.46543       92.80025
O        111.97127       73.53839       92.08970
C        110.18882       72.77712       94.15823
C        109.50854       71.95818       93.09679
O        110.07270       71.69636       92.04812
O        108.28435       71.44902       93.33400
H        109.03074       75.72408       94.21071
H        110.95172       74.62573       94.78925
H        109.52046       72.79285       95.04710
H        111.12155       72.25118       94.46097
N        112.23796       75.68914       92.70528
C        113.36558       76.07204       91.84620
C        114.65067       75.34120       92.22908
O        115.54595       75.98219       92.76269
C        113.05365       75.97411       90.32484
C        114.25690       76.42504       89.44677
C        111.79086       76.77371       89.96250
C        114.74932       77.85926       89.67963
H        111.88041       76.42967       93.32933
H        113.54502       77.14803       92.06785
H        112.84844       74.91388       90.06387
H        113.97300       76.32416       88.37974
H        115.11602       75.74618       89.62495
H        110.91162       76.38362       90.51514
H        111.90733       77.84868       90.21074
H        111.57667       76.67575       88.87623
H        113.95087       78.59995       89.47946
H        115.12429       77.99487       90.71442
H        115.59554       78.07054       88.99232
N        114.82523       74.01268       91.98414
C        116.01597       73.27901       92.37241
C        117.23691       73.70024       91.56232
O        118.19196       74.12913       92.19376
C        115.78404       71.75041       92.29871
C        114.72806       71.26919       93.26867
O        114.47816       70.07707       93.34044
O        114.07163       72.12666       94.07679
H        114.08917       73.48154       91.51741
H        116.22302       73.48821       93.44837
H        116.73108       71.23297       92.56404
H        115.49168       71.44135       91.27550
N        117.36601       73.58802       90.20265
C        116.35535       73.16153       89.24491
C        116.67324       71.78453       88.70000
O        117.55514       71.13797       89.24881
H        118.28475       73.82601       89.79721
H        116.33144       73.90741       88.42274
H        115.35304       73.13104       89.69630
N        116.00090       71.20457       87.65830
C        114.99578       71.83481       86.79250
C        113.89502       72.52039       87.63344
O        113.42613       71.69261       88.67387
C        114.50615       70.79616       85.74085
C        113.72566       69.63105       86.28935
O        112.62720       69.37169       85.82686
O        114.25111       68.82264       87.22887
H        116.27419       70.23392       87.44007
H        115.50756       72.63888       86.22688
H        115.40102       70.39254       85.22063
H        113.89982       71.27478       84.95742
N        112.78925       73.25746       86.98113
C        112.86007       73.86307       85.63062
C        113.93649       74.90294       85.42992
O        114.77289       75.08256       86.30215
H        112.55859       74.03233       87.64407
H        111.88595       74.37088       85.45796
H        112.92366       73.10003       84.84093
N        113.96232       75.63887       84.27203
C        115.01653       76.60632       83.97105
C        114.55872       78.06592       83.98911
O        115.44117       78.91252       84.03867
C        115.79755       76.20784       82.69376
C        114.97942       76.02721       81.40075
C        114.24155       77.25855       80.97762
N        114.89837       78.41251       80.72676
O        113.02957       77.20768       80.84802
H        113.21380       75.49271       83.57728
H        115.76546       76.57379       84.79168
H        116.28678       75.22866       82.88800
H        116.60869       76.94779       82.52291
H        114.25867       75.19070       81.52630
H        115.67415       75.74417       80.58077
H        115.92190       78.47671       80.82091
H        114.37522       79.24761       80.44227
N        113.24624       78.45546       84.03704
C        112.85347       79.82909       84.39514
C        112.15292       80.62538       83.29675
O        111.81008       81.76923       83.56389
C        111.95476       79.79808       85.67185
C        112.66214       79.09081       86.83628
C        110.57809       79.14750       85.42584
H        112.50907       77.74702       83.91937
H        113.75637       80.42629       84.64959
H        111.76874       80.84926       85.98733
H        112.84795       78.02073       86.60108
H        113.63217       79.58540       87.05235
H        112.03334       79.14089       87.75066
H        110.02533       79.67975       84.62312
H        110.66776       78.07845       85.14523
H        109.96324       79.21020       86.34849
N        111.87703       80.10855       82.06884
C        111.07682       80.81561       81.07030
C        109.76933       80.07854       80.80466
O        108.97925       80.61078       80.03524
C        111.84943       80.97324       79.73527
C        113.05096       81.88560       79.80973
N        112.91259       83.19162       80.13496
O        114.15724       81.45607       79.52290
H        112.18896       79.15963       81.85155
H        110.78842       81.82594       81.43256
H        111.17601       81.41704       78.96934
H        112.15335       79.96671       79.37206
H        111.98769       83.58998       80.34905
H        113.73534       83.81316       80.15223
N        109.45350       78.87268       81.37942
C        108.23208       78.13576       81.03917
C        108.02364       76.86641       81.87130
O        108.91433       76.43918       82.59479
C        108.24516       77.77422       79.52264
C        109.55737       77.14347       79.07639
C        110.39753       77.83453       78.18170
C        109.96857       75.88400       79.54504
C        111.61747       77.28204       77.77769
C        111.18356       75.32958       79.13589
C        112.01410       76.02553       78.25466
O        113.19034       75.48192       77.88222
H        110.10140       78.45210       82.05835
H        107.35979       78.78841       81.26625
H        108.09358       78.70638       78.94343
H        107.38689       77.12492       79.25150
H        110.11779       78.81004       77.80372
H        109.36029       75.32164       80.22741
H        112.25492       77.83351       77.09809
H        111.48227       74.35915       79.51200
H        113.80220       75.93656       77.28616
N        106.82224       76.21189       81.78846
C        106.48836       74.92421       82.40622
C        106.49627       74.89574       83.93242
O        106.20085       73.83981       84.47599
C        107.35493       73.79428       81.80068
C        107.08268       73.60061       80.29447
C        105.67037       73.14664       80.03797
O        104.92064       73.82286       79.35180
O        105.22501       71.99171       80.56951
H        106.08797       76.63450       81.19947
H        105.43285       74.68890       82.14877
H        107.13452       72.82794       82.30415
H        108.43005       74.00984       81.96989
H        107.76988       72.82428       79.89726
H        107.27394       74.54556       79.74385
N        106.74894       75.99577       84.69471
C        106.67075       75.99972       86.15497
C        105.59762       76.97013       86.57487
O        104.64527       76.55107       87.21845
C        108.03706       76.38645       86.74731
C        109.08349       75.31532       86.45034
C        109.02208       74.13416       87.37689
O        108.00260       73.49671       87.58463
O        110.20471       73.67931       87.79114
H        106.97797       76.88576       84.23489
H        106.38267       75.00309       86.55111
H        107.99269       76.55771       87.84621
H        108.35931       77.33272       86.26657
H        110.09249       75.76551       86.58297
H        109.02618       74.98077       85.39352
N        105.67245       78.28314       86.22090
C        104.64812       79.25156       86.54305
H        103.80556       78.80356       87.11025
H        105.09199       80.06692       87.14924
H        104.24585       79.67491       85.59916
H        106.48337       78.61966       85.68120
Ca       111.21596       72.14365       89.03320
O        110.30413       70.39373       87.01005
H        111.04702       70.07960       87.58445
H        109.50931       69.93433       87.37640
O        107.94474       71.31899       90.06576
H        107.46038       71.24323       89.20623
H        107.34680       71.85683       90.64334
O        112.91185       69.97327       90.75328
H        113.15352       69.02041       90.63887
H        112.41984       70.00980       91.61101
O        110.09894       69.09387       89.99623
H        109.86688       68.86609       90.93110
H        110.51606       68.27212       89.63408

Ca 1.0



