%chk=apoCaM-CA-Ng.loop3.water2.frame953.chk
%nprocshared=20
%mem=10GB
%nosave
#b3lyp/svp scf=(tight,noincore,xqc) Test 
#IOP(5/87=12) Density=Current Pop=(MK,readradii) iop(6/33=2) iop(6/42=6)

apoCaM-CA-Ng.loop3.water2.frame953 

   0  1 
C         80.00472      108.18882       47.17952
C         79.64625      109.54801       47.69712
O         78.60671      109.67727       48.32629
H         80.96338      107.86509       47.63704
H         79.22117      107.44818       47.45366
H         80.10709      108.21411       46.07633
N         80.47751      110.61132       47.48569
C         80.23983      111.93039       48.06026
C         80.08130      112.97904       46.96816
O         81.01434      113.18871       46.20488
C         81.41466      112.27943       48.99650
C         81.14267      113.46480       49.87131
O         82.07392      113.86513       50.75737
O         80.07024      114.04198       49.82184
H         81.33729      110.46493       46.93454
H         79.31731      111.90160       48.67385
H         82.34027      112.44208       48.40334
H         81.60547      111.43231       49.67657
N         78.90616      113.66072       46.82061
C         78.68508      114.62649       45.74238
C         79.39277      115.95762       45.95602
O         79.43340      116.73318       45.00957
C         77.18379      114.92330       45.56547
C         76.39189      113.67791       45.13615
C         74.91387      113.99122       44.86239
C         74.13279      114.37852       46.12869
N         72.73390      114.65611       45.80682
H         78.12277      113.42471       47.44853
H         79.05950      114.17754       44.79469
H         77.05819      115.68794       44.76620
H         76.79126      115.34253       46.51596
H         76.46625      112.87059       45.89554
H         76.83696      113.30238       44.18871
H         74.44520      113.08008       44.43186
H         74.84502      114.80467       44.10687
H         74.57024      115.28233       46.60187
H         74.18444      113.54045       46.85926
H         72.67437      115.47805       45.16227
H         72.29274      113.82190       45.35612
H         72.21721      114.87948       46.68780
N         79.91664      116.32653       47.15951
C         80.57134      117.61140       47.38303
C         82.03663      117.38068       47.70232
O         82.87145      117.91549       46.98566
C         79.75803      118.52772       48.33897
C         79.35841      118.10232       49.75532
O         78.64323      116.90241       49.81484
O         80.42296      118.03321       50.64863
H         79.84246      115.67962       47.95295
H         80.57718      118.20835       46.44243
H         78.79185      118.72784       47.82721
H         80.28191      119.50478       48.42246
N         82.42867      116.51451       48.67741
C         83.82008      116.12252       48.87739
C         84.33131      116.41110       50.26713
O         85.48829      116.10296       50.52294
H         81.71165      116.05643       49.25200
H         84.49443      116.63641       48.15846
H         83.90444      115.03096       48.68881
N         83.55765      117.01635       51.20972
C         84.03195      117.38547       52.53400
C         83.17658      116.75949       53.62443
O         82.14968      116.16000       53.33274
C         83.95482      118.92305       52.65588
C         84.78463      119.61224       51.59967
N         84.20447      120.41491       50.67495
O         85.99443      119.44278       51.57928
H         82.59766      117.27990       50.97517
H         85.08177      117.05007       52.68188
H         84.30646      119.25719       53.65388
H         82.88935      119.23164       52.55092
H         83.18524      120.56865       50.66740
H         84.77635      120.88330       49.95631
N         83.54067      116.90488       54.92885
C         82.70549      116.52735       56.05639
C         82.34760      115.06065       56.10576
O         83.22839      114.22161       56.22407
H         84.43306      117.37704       55.14103
H         81.78086      117.14104       56.01591
H         83.22978      116.78504       57.00082
N         81.03659      114.69742       56.04023
C         80.53865      113.33174       56.15137
C         80.06477      112.86815       54.78675
O         80.32153      113.56290       53.81548
C         79.42792      113.29890       57.22990
C         79.96342      113.73233       58.57636
C         79.49748      114.91066       59.18376
C         80.94002      112.96375       59.23455
C         80.01117      115.32057       60.41848
C         81.44834      113.37295       60.47120
C         80.99131      114.55364       61.06496
O         81.50109      114.94096       62.25179
H         80.33062      115.43408       55.89125
H         81.34520      112.62678       56.44810
H         79.00045      112.28136       57.34748
H         78.60287      113.97103       56.90534
H         78.74502      115.51926       58.69839
H         81.30858      112.04724       58.79138
H         79.64935      116.23588       60.86974
H         82.20190      112.77328       60.96654
H         81.22222      115.75745       62.69048
N         79.43869      111.66228       54.63281
C         79.10848      111.03672       53.35113
C         78.14782      111.88795       52.51500
O         78.46594      113.02857       52.21445
C         80.40608      110.67835       52.56046
C         80.11534      109.78107       51.32627
C         81.46897      110.01380       53.45889
C         79.52861      108.39555       51.62655
H         79.23422      111.10538       55.47464
H         78.61111      110.07646       53.59722
H         80.86442      111.62009       52.18835
H         81.06688      109.60682       50.78197
H         79.42248      110.31860       50.64960
H         81.78440      110.70091       54.27150
H         81.08687      109.08394       53.92583
H         82.37850      109.77977       52.86504
H         79.39654      107.84348       50.67246
H         80.21302      107.80001       52.26468
H         78.53567      108.46262       52.11151
N         76.97743      111.37251       52.03934
C         76.05358      112.14899       51.20710
C         74.60424      112.10162       51.68359
O         73.79162      112.81009       51.10471
C         76.11691      111.62177       49.76706
O         75.70828      110.28026       49.73110
H         76.78420      110.37440       52.20674
H         76.36143      113.21759       51.18383
H         77.16452      111.71180       49.41210
H         75.46294      112.23033       49.10331
H         75.97461      109.92868       48.84319
N         74.17738      111.23117       52.64597
C         72.75800      111.02007       52.92350
C         72.17056      112.12874       53.78254
O         72.93891      112.88329       54.36346
C         72.59068      109.66811       53.62656
H         74.85412      110.59831       53.08953
H         72.23006      110.96527       51.94699
H         73.01361      108.86710       52.98258
H         73.13153      109.66818       54.59674
H         71.53315      109.42557       53.81786
N         70.82359      112.32317       53.93807
C         69.78058      111.68802       53.13125
C         68.45311      111.65886       53.88600
O         68.06651      112.70012       54.39922
C         69.58831      112.51842       51.85734
H         70.54448      113.13520       54.51201
H         70.07423      110.67855       52.80142
H         69.28471      113.55867       52.10451
H         70.53340      112.55976       51.27622
H         68.80631      112.05830       51.21567
N         67.63064      110.56651       53.95200
C         67.86915      109.28314       53.29509
C         68.89518      108.43762       54.04300
O         69.32673      107.43214       53.49713
C         66.51650      108.53062       53.17568
C         66.55552      107.23473       52.34967
C         65.18005      106.63685       52.25257
O         64.52946      106.25360       53.36841
O         64.64785      106.48932       51.16405
H         66.72177      110.70379       54.42407
H         68.21791      109.48875       52.25896
H         65.79646      109.21583       52.67354
H         66.13009      108.31013       54.19582
H         67.21347      106.47883       52.82117
H         66.93828      107.46102       51.33009
N         69.31081      108.75703       55.30419
C         70.24014      107.94341       56.06433
H         71.12574      108.55169       56.33959
H         69.74166      107.59181       56.99246
H         70.58743      107.05106       55.50188
H         68.93977      109.59304       55.77622
Ca        79.80526      116.06168       51.57967
O         79.25683      117.70620       53.98716
H         79.02042      116.99943       54.63855
H         80.13746      118.04197       54.29002
O         76.93381      115.54475       52.62482
H         76.47029      116.40989       52.75213
H         76.49306      114.92777       53.26172

Ca 1.0



