%chk=apoCaM-CA-Ng.loop1.water3.frame132.chk
%nprocshared=20
%mem=10GB
%nosave
#b3lyp/svp scf=(tight,noincore,xqc) Test 
#IOP(5/87=12) Density=Current Pop=(MK,readradii) iop(6/33=2) iop(6/42=6)

apoCaM-CA-Ng.loop1.water3.frame132 

   0  1 
C         40.61733       62.61948      -13.79023
C         39.26942       61.96005      -13.73526
O         38.94921       61.16178      -14.60307
H         41.20050       62.26671      -14.66638
H         40.49137       63.72069      -13.85975
H         41.18471       62.38156      -12.86482
N         38.42868       62.24757      -12.70712
C         37.11341       61.63644      -12.53455
C         36.16570       61.91028      -13.69732
O         35.43782       61.00195      -14.06604
C         36.48896       61.99760      -11.16339
C         36.24572       63.46760      -10.91516
O         37.16801       64.26515      -10.92153
O         35.01670       63.90318      -10.59317
H         38.77620       62.90245      -11.99318
H         37.25889       60.53251      -12.49171
H         37.17536       61.63163      -10.36885
H         35.53082       61.44182      -11.05225
N         36.12252       63.11462      -14.33538
C         35.23656       63.38160      -15.47339
C         35.54919       62.48998      -16.66848
O         36.71197       62.44267      -17.04571
C         35.37319       64.84400      -15.95599
C         34.70780       65.83793      -14.99902
C         34.82960       67.27094      -15.54297
C         34.08622       68.30785      -14.68494
N         32.63028       68.15905      -14.76950
H         36.74793       63.86493      -14.00433
H         34.19979       63.23258      -15.15099
H         34.84280       64.95203      -16.92814
H         36.44334       65.09388      -16.13178
H         35.17103       65.78012      -13.99119
H         33.63873       65.55252      -14.91884
H         34.44182       67.33068      -16.58449
H         35.90920       67.53602      -15.56227
H         34.35278       69.31995      -15.06207
H         34.42051       68.23700      -13.62669
H         32.31777       68.26068      -15.76310
H         32.31727       67.23739      -14.39320
H         32.17903       68.91216      -14.20205
N         34.59795       61.83590      -17.41523
C         33.14489       61.78679      -17.21158
C         32.51328       63.17668      -17.03196
O         31.94250       63.43490      -15.98067
C         32.75225       60.84896      -16.04884
C         33.23806       59.42489      -16.12577
O         32.94443       58.66641      -15.21554
O         34.03109       58.96785      -17.11574
H         34.93698       61.34936      -18.26107
H         32.69166       61.32957      -18.11480
H         31.64396       60.81498      -16.01081
H         33.11510       61.26505      -15.09404
N         32.53202       64.14033      -17.99040
C         33.04244       63.91966      -19.32749
C         32.86284       65.12955      -20.23383
O         32.51509       66.20122      -19.75770
H         32.09411       65.04386      -17.75320
H         32.44830       63.08415      -19.75388
H         34.11656       63.64101      -19.30247
N         33.01773       65.03913      -21.58581
C         33.28922       63.78356      -22.27692
C         31.98164       63.14558      -22.70748
O         30.93278       63.76525      -22.58306
C         34.31260       63.95758      -23.42017
C         33.84670       64.83794      -24.55269
O         33.73230       64.37337      -25.67543
O         33.60486       66.14779      -24.35632
H         32.76969       65.87041      -22.14020
H         33.75656       63.06645      -21.57270
H         34.54817       62.95074      -23.82883
H         35.25547       64.37639      -23.00680
N         31.96426       61.86195      -23.15660
C         30.73560       61.15811      -23.47638
C         29.85278       61.01067      -22.25375
O         28.70998       61.44430      -22.28108
H         32.85389       61.34792      -23.24663
H         30.98927       60.13730      -23.83697
H         30.19998       61.68807      -24.29361
N         30.32642       60.37334      -21.14718
C         29.52398       60.11636      -19.95176
C         29.11395       61.41650      -19.26744
O         29.95341       62.28370      -19.07155
C         30.28329       59.21623      -18.93912
C         30.69815       57.86627      -19.53899
O         29.44451       58.96054      -17.84383
H         31.29810       60.03186      -21.17862
H         28.61440       59.54536      -20.24571
H         31.19228       59.75365      -18.59850
H         30.02537       58.69641      -17.08401
H         31.20198       57.25655      -18.75868
H         29.80525       57.31305      -19.89938
H         31.41259       57.98653      -20.37623
N         27.84533       61.55969      -18.78467
C         27.37605       62.71760      -18.01964
C         27.21083       62.37768      -16.53411
O         26.77808       63.23901      -15.78236
C         26.05960       63.29471      -18.62924
C         24.90797       62.25160      -18.64526
C         26.33726       63.86415      -20.03174
C         23.54803       62.84382      -19.01978
H         27.20170       60.76258      -18.89385
H         28.13373       63.53293      -18.03796
H         25.74528       64.14776      -17.98650
H         24.79628       61.81658      -17.62962
H         25.13650       61.42904      -19.35499
H         26.65329       63.06156      -20.73064
H         25.44314       64.37096      -20.44651
H         27.14285       64.62751      -19.97737
H         23.26634       63.64153      -18.30030
H         23.54783       63.25616      -20.04821
H         22.77748       62.04472      -18.97816
N         27.60159       61.16919      -16.03230
C         27.54242       60.79309      -14.62491
C         28.96208       60.62913      -14.12171
O         29.71503       59.86938      -14.71197
C         26.77270       59.46652      -14.46490
C         25.33075       59.58410      -14.96002
O         26.76492       59.09915      -13.10795
H         28.00812       60.47420      -16.66416
H         27.02893       61.57299      -14.01949
H         27.29479       58.68765      -15.07300
H         26.81042       58.10801      -13.07234
H         24.78397       60.35641      -14.37853
H         25.30775       59.85422      -16.03659
H         24.81554       58.60839      -14.83645
N         29.39301       61.31494      -13.02601
C         30.77699       61.29088      -12.55924
C         30.86685       60.54486      -11.22773
O         29.83752       60.15272      -10.69604
C         31.26222       62.76927      -12.53574
C         32.75959       62.96753      -12.33345
O         30.55550       63.48899      -11.55686
H         28.71806       61.89868      -12.50821
H         31.40762       60.72621      -13.27879
H         31.03031       63.17893      -13.54633
H         30.57510       64.44470      -11.82528
H         33.05156       62.69817      -11.30705
H         33.33283       62.37436      -13.07022
H         33.01614       64.03910      -12.47679
N         32.07421       60.29092      -10.64229
C         32.23314       59.60589       -9.36197
C         33.23956       58.44879       -9.45676
O         33.50284       57.81492       -8.44449
C         32.59375       60.68700       -8.32043
C         32.65984       60.17907       -6.86672
C         32.74878       61.32712       -5.84112
C         31.46843       62.18389       -5.70376
N         30.33912       61.41774       -5.16791
H         32.93048       60.62823      -11.09645
H         31.26419       59.17256       -9.02963
H         31.77767       61.43439       -8.39134
H         33.54663       61.19517       -8.58705
H         33.57167       59.55766       -6.75641
H         31.78508       59.53957       -6.63119
H         33.60033       61.98443       -6.12114
H         32.97105       60.89537       -4.84150
H         31.18311       62.65084       -6.66888
H         31.68902       63.01509       -4.99873
H         29.52185       62.05773       -5.04163
H         30.05349       60.65573       -5.82169
H         30.59004       61.01304       -4.23635
N         33.79669       58.06873      -10.64567
C         34.72369       56.94671      -10.77714
C         36.04827       57.28458      -10.11948
O         36.67698       58.25688      -10.51716
C         34.90976       56.62746      -12.27497
C         35.70391       55.34539      -12.57523
C         35.65977       55.12032      -14.06268
O         35.04399       54.17455      -14.52756
O         36.20547       56.03841      -14.88312
H         33.51610       58.55292      -11.50969
H         34.26120       56.04877      -10.30862
H         35.37644       57.49731      -12.78995
H         33.89053       56.48186      -12.70084
H         35.21986       54.48985      -12.05415
H         36.75613       55.42640      -12.22779
N         36.53633       56.52481       -9.10127
C         37.79557       56.82839       -8.45387
H         38.62307       56.79689       -9.19473
H         37.75234       57.83805       -7.99204
H         38.00431       56.08282       -7.65738
H         36.00278       55.70576       -8.77340
Ca        35.02559       57.00257      -16.56015
O         32.20273       55.61651      -16.09117
H         31.60774       55.20125      -16.76472
H         32.64622       54.85067      -15.64763
O         37.12619       58.87209      -15.54752
H         36.16597       59.04909      -15.39165
H         37.38069       59.51608      -16.25420
O         34.51009       56.78669      -19.62457
H         33.61843       56.41031      -19.83308
H         34.94614       56.89838      -20.50640

Ca 1.0



