%chk=apoCaM-CA-Ng.loop1.water5.frame4.chk
%nprocshared=20
%mem=10GB
%nosave
#b3lyp/svp scf=(tight,noincore,xqc) Test 
#IOP(5/87=12) Density=Current Pop=(MK,readradii) iop(6/33=2) iop(6/42=6)

apoCaM-CA-Ng.loop1.water5.frame4 

   0  1 
C         40.11796       31.73442       76.88132
C         39.83807       31.48336       75.42882
O         39.56535       32.42411       74.69644
H         40.04847       32.81762       77.11660
H         39.36744       31.19187       77.49598
H         41.13247       31.36960       77.14345
N         39.86914       30.21048       74.94373
C         39.55629       29.87158       73.55449
C         38.08577       30.12228       73.18275
O         37.72941       29.88961       72.03674
C         39.93952       28.40023       73.24891
C         39.12091       27.37136       73.98686
O         38.44203       26.57334       73.36025
O         39.16049       27.29216       75.33042
H         40.15701       29.46649       75.59552
H         40.20097       30.49965       72.90071
H         41.01250       28.23953       73.49091
H         39.81903       28.22943       72.15623
N         37.17831       30.57480       74.09748
C         35.74955       30.74480       73.85257
C         35.37370       32.20887       74.05536
O         35.86604       32.78124       75.01813
C         34.99307       29.88883       74.89046
C         35.34816       28.39723       74.80034
C         34.56331       27.59882       75.85155
C         34.84386       26.08733       75.81117
N         36.22808       25.76345       76.15852
H         37.48333       30.77433       75.05741
H         35.46084       30.39569       72.84492
H         33.90362       30.00308       74.74274
H         35.23604       30.25136       75.91452
H         36.43562       28.27685       74.97943
H         35.10448       28.01811       73.78388
H         33.47773       27.74735       75.66303
H         34.79533       27.98507       76.86854
H         34.60298       25.68335       74.80316
H         34.17171       25.59628       76.54859
H         36.33704       24.72440       76.19329
H         36.87944       26.12848       75.43308
H         36.47246       26.16095       77.09471
N         34.47399       32.91006       73.29431
C         33.65813       32.44706       72.17205
C         32.85326       31.19388       72.49812
O         32.99531       30.20972       71.78531
C         34.48975       32.30443       70.87601
C         35.05493       33.62237       70.43773
O         36.25832       33.76017       70.29505
O         34.22715       34.64915       70.16452
H         34.29633       33.88244       73.59036
H         32.90141       33.23347       71.95169
H         33.82240       31.95690       70.05891
H         35.30290       31.56153       70.99228
N         31.96547       31.10847       73.53275
C         31.67704       32.13361       74.52356
C         30.19188       32.42376       74.59157
O         29.41760       31.47911       74.51879
H         31.47723       30.20681       73.65670
H         32.26650       33.04757       74.38588
H         31.96642       31.71673       75.51061
N         29.67608       33.66475       74.83061
C         30.46201       34.87861       75.03593
C         31.09885       35.30592       73.73182
O         32.30571       35.50006       73.69985
C         29.59082       36.02271       75.60341
C         29.05101       35.69620       76.97630
O         29.41765       36.44073       78.03729
O         28.27688       34.76650       77.13936
H         28.65001       33.73338       74.91533
H         31.24835       34.69529       75.80409
H         28.74969       36.26448       74.91969
H         30.22960       36.92891       75.70170
N         30.34689       35.43276       72.60316
C         30.89408       35.78313       71.30251
C         30.75988       34.63436       70.32677
O         30.30125       33.56281       70.70827
H         29.33504       35.23452       72.65589
H         31.97145       36.04616       71.36638
H         30.34911       36.67195       70.91821
N         31.15416       34.79486       69.03308
C         31.09095       33.74473       68.01955
C         32.47802       33.50420       67.44936
O         33.11777       34.45224       67.01102
C         30.07988       34.12325       66.91780
C         29.94613       32.99746       65.88061
O         30.46541       35.31680       66.28676
H         31.51407       35.72094       68.74735
H         30.71595       32.79693       68.46849
H         29.09224       34.26464       67.41699
H         29.66903       35.64761       65.79457
H         29.64601       32.04943       66.37733
H         29.17133       33.26023       65.13124
H         30.90732       32.83254       65.34844
N         33.00453       32.24971       67.42231
C         34.37116       31.96249       66.99986
C         34.68007       32.43195       65.57873
O         34.11386       31.91467       64.62730
C         34.70386       30.43922       67.18082
C         36.19501       30.11106       66.91496
C         33.83093       29.51291       66.30112
C         37.14950       30.77651       67.90651
H         32.42325       31.47676       67.78142
H         35.01955       32.52807       67.69833
H         34.48178       30.17026       68.23738
H         36.47391       30.39410       65.87678
H         36.34436       29.01379       67.01639
H         34.04754       29.62916       65.22098
H         34.03757       28.45094       66.55133
H         32.74888       29.68581       66.46736
H         38.18721       30.45160       67.69158
H         37.11980       31.88024       67.83230
H         36.89505       30.46908       68.94264
N         35.62376       33.39656       65.37621
C         36.16401       33.73594       64.05881
C         37.68588       33.55375       64.00566
O         38.23380       33.64986       62.91597
C         35.78182       35.18121       63.64897
C         36.32598       36.25719       64.60273
O         34.38831       35.30539       63.51184
H         35.99660       33.88546       66.20185
H         35.73877       33.05029       63.29264
H         36.22333       35.37896       62.64699
H         33.98135       35.19371       64.40960
H         37.43130       36.20113       64.67347
H         36.05261       37.26514       64.22674
H         35.90059       36.13555       65.61773
N         38.43703       33.33217       65.13108
C         39.89306       33.20891       65.18108
C         40.58612       34.47872       64.68037
O         39.94177       35.36227       64.13272
C         40.38559       31.93935       64.42168
C         39.62822       30.67966       64.85184
O         41.74988       31.73085       64.67810
H         37.97902       33.26187       66.04566
H         40.16708       33.08575       66.25408
H         40.22752       32.09281       63.32996
H         42.09819       31.13210       63.96716
H         39.76589       30.50023       65.93758
H         38.54790       30.77140       64.62060
H         40.02080       29.80054       64.29709
N         41.93117       34.62049       64.82799
C         42.69871       35.69701       64.20671
C         42.62325       37.00633       64.99008
O         43.22265       37.97813       64.55049
C         44.15054       35.21232       63.97017
C         44.14782       33.93984       63.08232
C         45.51406       33.27467       62.90911
C         46.48121       34.07854       62.03788
N         47.74201       33.35273       61.88277
H         42.44631       33.88340       65.32819
H         42.28638       35.89395       63.19086
H         44.62353       34.98823       64.95099
H         44.73677       36.01043       63.46660
H         43.69889       34.15859       62.08829
H         43.52102       33.16607       63.55880
H         45.34565       32.29540       62.40743
H         45.95659       33.07616       63.90954
H         46.68091       35.07072       62.49453
H         46.02287       34.23307       61.03504
H         47.56888       32.41299       61.45557
H         48.37825       33.89528       61.25625
H         48.20076       33.23233       62.81513
N         41.85951       37.13347       66.11608
C         41.67355       38.40326       66.81334
C         42.94702       38.83371       67.51036
O         43.43897       38.10419       68.36050
C         40.51462       38.30408       67.83186
C         39.17668       38.07296       67.10692
C         38.02281       38.00913       68.05889
O         37.12362       38.83126       67.98536
O         37.94431       37.02066       68.96742
H         41.33638       36.31768       66.46091
H         41.37460       39.18148       66.07534
H         40.43973       39.26542       68.38848
H         40.71302       37.48983       68.56426
H         39.19469       37.12545       66.52978
H         39.01046       38.91058       66.39391
N         43.51874       40.03448       67.20822
C         44.71290       40.54212       67.85331
H         45.49715       40.72052       67.08865
H         44.47630       41.50540       68.35339
H         45.11431       39.84295       68.61623
H         43.08203       40.63548       66.49316
Ca        36.06714       36.88227       70.20815
O         34.27810       37.63622       72.65051
H         34.26323       36.70146       72.32460
H         33.33109       37.92400       72.62692
O         38.08077       35.87647       72.09830
H         38.33788       35.47118       72.96351
H         38.24221       35.16303       71.43113
O         36.94903       39.07802       71.82557
H         37.47261       39.87099       71.54951
H         36.77235       39.21271       72.79008
O         34.54639       37.35458       67.51993
H         33.61509       37.40968       67.18971
H         34.65500       36.41388       67.80801
O         33.81255       39.24898       69.81118
H         33.44134       39.60699       70.65600
H         33.03241       38.85353       69.34715

Ca 1.0



