%chk=apoCaM-CA-Ng.loop3.water4.frame40.chk
%nprocshared=20
%mem=10GB
%nosave
#b3lyp/svp scf=(tight,noincore,xqc) Test 
#IOP(5/87=12) Density=Current Pop=(MK,readradii) iop(6/33=2) iop(6/42=6)

apoCaM-CA-Ng.loop3.water4.frame40 

   0  1 
C         53.22978       82.76102       53.91565
C         53.49378       84.23298       54.03896
O         53.64209       84.88253       53.01579
H         52.29823       82.60360       53.33039
H         54.07492       82.27100       53.38937
H         53.10270       82.28479       54.91017
N         53.54648       84.83116       55.26693
C         53.72155       86.26647       55.49054
C         55.08935       86.79247       55.06740
O         55.26785       88.00267       55.11193
C         52.59421       87.08453       54.80847
C         51.20253       86.68476       55.23113
O         50.24286       87.27478       54.76186
O         50.99423       85.69600       56.12278
H         53.40738       84.24353       56.10308
H         53.64009       86.46602       56.58237
H         52.67815       87.00365       53.70813
H         52.72041       88.15889       55.06487
N         56.12066       85.97795       54.68575
C         57.40148       86.53834       54.25386
C         57.29451       87.23288       52.90399
O         58.27417       87.84563       52.49710
C         58.51400       85.46626       54.19266
C         58.88903       84.97173       55.60083
C         60.11500       84.04041       55.64553
C         61.39190       84.69868       55.08522
N         62.57405       83.88276       55.35674
H         56.01134       84.95479       54.72723
H         57.72334       87.30263       54.99613
H         59.41020       85.95483       53.76062
H         58.22450       84.62031       53.53000
H         58.02157       84.44657       56.05500
H         59.12468       85.85520       56.23404
H         59.91049       83.09433       55.09940
H         60.28660       83.79367       56.71626
H         61.53620       85.69783       55.55322
H         61.29542       84.83381       53.98617
H         63.40941       84.34037       54.92423
H         62.72812       83.81637       56.38930
H         62.45993       82.92615       54.95117
N         56.16817       87.16475       52.13892
C         56.06131       87.76338       50.81934
C         54.88155       88.72050       50.75741
O         53.98517       88.63707       51.58773
C         55.91804       86.60481       49.82515
C         55.85771       87.02538       48.39888
O         56.88010       87.68261       47.82591
O         54.89950       86.70067       47.71618
H         55.36044       86.61832       52.46392
H         56.98396       88.33559       50.57633
H         55.00488       86.01790       50.07435
H         56.79695       85.93222       49.93323
N         54.84699       89.70164       49.81146
C         53.76514       90.66565       49.70027
C         52.49417       90.09479       49.09961
O         51.53849       90.84979       48.99071
H         55.65282       89.81249       49.17909
H         54.08672       91.49366       49.03524
H         53.56034       91.10735       50.70150
N         52.38987       88.79217       48.69571
C         51.15664       88.21548       48.16896
C         50.50214       87.31880       49.20431
O         49.35765       86.94256       48.98897
C         51.42489       87.42260       46.87247
C         51.94796       88.28045       45.74965
N         51.17757       89.25088       45.20517
O         53.06780       88.07634       45.30537
H         53.18904       88.15995       48.81533
H         50.41728       89.02117       47.96519
H         50.49010       86.93575       46.51798
H         52.15891       86.61850       47.10166
H         50.22071       89.41944       45.54802
H         51.53047       89.82133       44.42230
N         51.12770       86.97138       50.36999
C         50.44528       86.28424       51.44582
C         49.91197       84.93955       51.03502
O         50.69627       84.03399       50.80767
H         52.10054       87.24904       50.54770
H         49.62032       86.94374       51.78873
H         51.12757       86.13916       52.30484
N         48.56111       84.75927       50.98156
C         47.82101       83.53892       50.68099
C         47.83771       83.12178       49.21139
O         46.75680       83.00299       48.66554
C         48.15409       82.38321       51.65277
C         47.01753       81.37698       51.67292
C         45.73563       81.78872       52.09239
C         47.20308       80.04272       51.27842
C         44.66111       80.90162       52.08306
C         46.12045       79.15287       51.26725
C         44.84446       79.58396       51.66340
O         43.78932       78.74514       51.64750
H         47.97540       85.57276       51.22778
H         46.76534       83.81984       50.88268
H         48.24732       82.78095       52.68645
H         49.12645       81.92168       51.37325
H         45.55907       82.80435       52.42347
H         48.17777       79.69063       50.97132
H         43.68314       81.24475       52.39773
H         46.27219       78.13038       50.94670
H         43.86425       77.82674       51.35382
N         48.99239       82.86586       48.52609
C         49.14358       82.46521       47.12149
C         48.64353       83.53362       46.14957
O         49.47797       84.14845       45.49859
C         48.57866       81.04766       46.81898
C         48.94983       80.01369       47.91164
C         49.05545       80.55008       45.43780
C         50.44955       79.82158       48.16631
H         49.87600       82.95011       49.02972
H         50.24485       82.39047       46.95787
H         47.46877       81.09856       46.80537
H         48.50394       79.02986       47.64861
H         48.48528       80.34011       48.85796
H         48.61153       79.55727       45.21204
H         48.76666       81.24544       44.63068
H         50.16073       80.46266       45.39893
H         50.58638       79.07514       48.97684
H         50.97039       79.44581       47.26347
H         50.92456       80.76696       48.49860
N         47.31401       83.81261       45.98068
C         46.83586       84.82946       45.05589
C         46.82378       84.31562       43.63311
O         46.74173       85.13317       42.72825
C         45.42574       85.30483       45.44022
O         45.40475       85.77757       46.76027
H         46.60381       83.26948       46.47731
H         47.51670       85.70830       45.12617
H         44.71052       84.45751       45.36072
H         45.07021       86.10110       44.74729
H         45.89885       86.63840       46.76259
N         46.91471       82.97611       43.35748
C         46.99716       82.41627       42.01359
C         48.25541       82.86892       41.28842
O         48.37728       82.56186       40.10760
C         45.72952       82.74942       41.20893
H         46.92436       82.30182       44.13200
H         47.03913       81.30648       42.08892
H         45.76051       82.24097       40.22140
H         44.83160       82.38652       41.75237
H         45.62115       83.83624       41.02334
N         49.23647       83.59159       41.91125
C         50.37686       84.15060       41.20955
C         51.68869       83.62229       41.73221
O         51.73984       83.02250       42.79995
C         50.35254       85.67260       41.37228
H         49.17779       83.79032       42.91922
H         50.31971       83.90155       40.12793
H         50.42952       85.94020       42.45099
H         51.19619       86.14608       40.82953
H         49.39823       86.08042       40.97883
N         52.80597       83.80464       40.97556
C         54.15201       83.40135       41.34775
C         54.18079       81.94004       41.75853
O         54.66346       81.61209       42.83446
C         54.71997       84.36334       42.41276
C         54.67512       85.82450       41.91017
C         55.26857       86.79536       42.88446
O         55.25077       87.99188       42.64477
O         55.80853       86.35481       44.02913
H         52.69843       84.25047       40.05045
H         54.79811       83.50871       40.44807
H         55.77483       84.07930       42.62506
H         54.13410       84.28036       43.35550
H         53.61714       86.11962       41.74388
H         55.23012       85.91198       40.95237
N         53.63138       81.00241       40.93994
C         53.58537       79.60141       41.29392
H         53.04681       79.03216       40.50680
H         54.61581       79.20023       41.38848
H         53.04375       79.47055       42.25566
H         53.20357       81.29628       40.04884
Ca        56.53343       87.72832       45.62942
O         54.41927       90.84146       46.38005
H         55.06350       91.50780       46.72823
H         53.70984       91.38485       45.95421
O         56.66104       90.74432       44.10422
H         57.47204       91.30134       43.99239
H         55.96184       91.21572       43.58528
O         57.52236       90.40965       47.16024
H         58.40102       90.43740       46.70578
H         57.66535       90.88988       48.01397
O         59.23569       88.54549       44.47640
H         58.81936       87.83278       43.92906
H         59.52439       88.08547       45.30454

Ca 1.0



