%chk=apoCaM-CA-Ng.loop4.water5.frame611.chk
%nprocshared=20
%mem=10GB
%nosave
#b3lyp/svp scf=(tight,noincore,xqc) Test 
#IOP(5/87=12) Density=Current Pop=(MK,readradii) iop(6/33=2) iop(6/42=6)

apoCaM-CA-Ng.loop4.water5.frame611 

   -3  1 
C         85.35915       42.23168       89.73394
C         86.58393       42.32532       90.58900
O         87.64239       41.88729       90.16098
H         84.95947       43.24868       89.54210
H         85.59529       41.74679       88.76248
H         84.59094       41.62500       90.25790
N         86.50689       42.89381       91.82704
C         87.63242       42.99855       92.74794
C         88.74329       43.82171       92.12049
O         89.84113       43.31586       91.92412
C         88.11138       41.59816       93.18217
C         87.00336       40.77891       93.77588
O         86.67745       39.72549       93.25253
O         86.36166       41.19127       94.88249
H         85.59820       43.26681       92.14197
H         87.29742       43.52770       93.66844
H         88.92853       41.69580       93.93047
H         88.50483       41.05907       92.30252
N         88.51084       45.12254       91.78436
C         89.51830       45.98405       91.16530
C         89.93758       47.08274       92.14111
O         89.24424       47.27602       93.13064
C         89.00085       46.54803       89.79882
C         87.69850       47.37993       89.96053
C         88.81795       45.39104       88.79966
C         87.26076       48.09430       88.67967
H         87.58632       45.51976       92.00704
H         90.43183       45.38079       90.98167
H         89.76920       47.22456       89.37577
H         87.86602       48.16716       90.72601
H         86.86006       46.73517       90.29773
H         88.02844       44.68992       89.14303
H         88.54993       45.76498       87.79136
H         89.77038       44.83020       88.69168
H         88.06177       48.77774       88.32693
H         87.00675       47.37509       87.87557
H         86.35059       48.69580       88.88869
N         91.09067       47.81114       92.00984
C         92.08340       47.64736       90.94859
C         93.38194       47.03227       91.45586
O         94.20130       46.68459       90.62119
C         92.31134       48.96806       90.18113
C         92.87717       50.08637       91.01962
O         93.96802       50.56044       90.74648
O         92.16906       50.60964       92.03854
H         91.29689       48.48917       92.75723
H         91.72865       46.91725       90.20314
H         91.34879       49.30875       89.74210
H         93.00785       48.76267       89.33784
N         93.62809       46.80197       92.77907
C         94.76076       46.01823       93.25094
C         96.10704       46.56135       92.82691
O         96.44620       47.68032       93.18314
H         92.95964       47.12321       93.49241
H         94.64052       44.98029       92.87224
H         94.73481       45.96784       94.36073
N         96.93848       45.78051       92.07654
C         98.28245       46.16332       91.65860
C         98.38960       46.30498       90.14372
O         99.47986       46.58757       89.66560
C         99.31210       45.17031       92.26071
C         99.05779       43.71198       91.97265
O         98.80052       42.86507       92.98808
O         99.11797       43.27673       90.83792
H         96.60644       44.84678       91.78821
H         98.55085       47.16436       92.06088
H         99.28071       45.29417       93.36446
H        100.33907       45.43387       91.92610
N         97.29920       46.19832       89.32486
C         97.35794       46.41734       87.88770
C         98.08351       45.32599       87.13492
O         98.18497       45.44015       85.92221
H         96.37301       46.01150       89.72445
H         97.82512       47.40538       87.68647
H         96.32191       46.44364       87.48437
N         98.56728       44.21629       87.76941
C         99.23498       43.09182       87.12617
C         98.27933       42.25653       86.27714
O         98.71743       41.23840       85.76094
C        100.51021       43.55515       86.37780
C        101.49030       44.24149       87.35050
C        102.71731       44.76465       86.65018
N        103.03417       46.08097       86.70748
O        103.44170       43.99365       86.03890
H         98.45318       44.13798       88.78026
H         99.56976       42.39522       87.92855
H        100.25050       44.24963       85.55316
H        101.01695       42.67505       85.92506
H        101.80491       43.51328       88.12916
H        100.98065       45.08648       87.85919
H        102.44377       46.74754       87.22709
H        103.87907       46.43828       86.23764
N         96.95744       42.58468       86.12895
C         95.98954       41.76948       85.40379
C         94.77143       41.43637       86.26140
O         93.88055       40.78010       85.73608
C         95.51092       42.51094       84.12107
C         94.73339       43.80564       84.42819
C         96.68609       42.81214       83.18477
H         96.59386       43.44848       86.54178
H         96.45233       40.80967       85.08374
H         94.82051       41.83105       83.57230
H         95.36716       44.54859       84.95406
H         94.36605       44.26123       83.48532
H         93.84386       43.58931       85.05451
H         96.31276       43.27429       82.24632
H         97.40435       43.51166       83.66244
H         97.21636       41.87224       82.92250
N         94.62133       41.87680       87.55002
C         93.36792       41.72437       88.28017
C         93.50233       40.75949       89.43034
O         94.59632       40.32366       89.76344
C         92.89580       43.09413       88.82247
C         92.68450       44.11200       87.73342
N         93.41978       45.24797       87.70096
O         91.83270       43.91611       86.87987
H         95.38729       42.37039       88.03056
H         92.58156       41.30876       87.61196
H         93.65618       43.46782       89.54427
H         91.93764       42.98769       89.37620
H         94.14519       45.42635       88.40891
H         93.26908       45.95160       86.96363
N         92.36783       40.36170       90.06099
C         92.31529       39.45703       91.19201
C         91.60233       38.19962       90.74705
O         90.46008       38.29457       90.31491
C         91.51810       40.15526       92.30467
C         91.30595       39.30783       93.53047
C         90.03547       38.77483       93.80137
C         92.35858       39.06298       94.42354
C         89.81552       38.01712       94.94986
C         92.13505       38.30933       95.58136
C         90.86404       37.78569       95.84919
O         90.66120       37.06567       96.97037
H         91.46515       40.71052       89.69776
H         93.33543       39.20702       91.55767
H         90.53576       40.41345       91.86522
H         91.99396       41.11634       92.59788
H         89.21409       38.93777       93.11913
H         93.34282       39.47256       94.23357
H         88.82845       37.61613       95.13873
H         92.94866       38.13814       96.27415
H         89.79537       36.69271       97.19037
N         92.21796       36.98559       90.81360
C         91.56891       35.75397       90.39114
C         91.48753       34.81500       91.58223
O         92.51902       34.27479       91.95811
C         92.36620       35.14082       89.22131
C         91.71292       33.87627       88.63997
C         92.50727       33.28311       87.50327
O         93.55811       33.78393       87.13119
O         92.05229       32.17525       86.88881
H         93.18244       36.93039       91.17678
H         90.55927       35.97519       90.01057
H         93.39799       34.90311       89.56520
H         92.44061       35.90064       88.41159
H         90.69799       34.13160       88.26615
H         91.61811       33.10365       89.43174
N         90.34579       34.60157       92.30188
C         89.07022       35.28396       92.09679
C         88.38507       34.83747       90.81984
O         88.15980       33.64752       90.64714
C         88.14341       35.02550       93.30518
C         86.84706       35.84825       93.22738
C         86.02173       35.66934       94.46661
O         85.59573       34.56706       94.77253
O         85.74328       36.73148       95.24543
H         90.42724       33.97520       93.11934
H         89.25903       36.38043       92.08404
H         88.68798       35.32859       94.22649
H         87.90624       33.94124       93.38554
H         86.24424       35.54384       92.34526
H         87.10488       36.92460       93.12294
N         87.98028       35.76275       89.90378
C         87.27169       35.43047       88.68528
H         86.27825       35.92749       88.69538
H         87.84806       35.79954       87.81199
H         87.11368       34.33792       88.57032
H         88.15839       36.76197       90.08499
Ca        84.70690       39.87154       95.66016
O         87.26419       39.24049       97.30058
H         87.76280       38.38806       97.23652
H         87.91271       39.93087       97.01208
O         83.88149       38.06661       93.09740
H         82.94788       37.82690       92.87157
H         84.10089       38.81450       92.48682
O         84.31642       40.80983       98.44025
H         83.73630       41.61025       98.38607
H         83.69392       40.06466       98.63421
O         81.98831       38.82102       96.08815
H         81.22009       38.40058       96.54910
H         81.58056       39.42879       95.42131
O         84.27544       37.34674       97.83247
H         85.01920       36.70839       97.97275
H         83.55375       36.80189       97.42900

Ca 1.0



