%chk=apoCaM-CA-Ng.loop1.water2.frame1289.chk
%nprocshared=20
%mem=10GB
%nosave
#b3lyp/svp scf=(tight,noincore,xqc) Test 
#IOP(5/87=12) Density=Current Pop=(MK,readradii) iop(6/33=2) iop(6/42=6)

apoCaM-CA-Ng.loop1.water2.frame1289 

   0  1 
C         76.95635       31.38767       11.17638
C         77.42453       32.76696       11.52571
O         76.68442       33.48341       12.18514
H         76.03256       31.44560       10.56294
H         77.72942       30.83041       10.60829
H         76.73679       30.83492       12.11373
N         78.64621       33.21576       11.11227
C         79.17572       34.52451       11.48314
C         78.82349       35.57227       10.43621
O         79.67344       36.37292       10.06719
C         80.70609       34.42551       11.69407
C         81.10694       33.46604       12.78291
O         80.18435       32.83265       13.53381
O         82.29145       33.26199       12.99370
H         79.24152       32.58571       10.55334
H         78.70555       34.85936       12.43536
H         81.12657       35.42257       11.94723
H         81.16600       34.08599       10.73807
N         77.56582       35.63321        9.91541
C         77.14856       36.67758        8.99614
C         76.96733       37.95563        9.79301
O         77.64563       38.92080        9.46949
C         75.88003       36.29446        8.19407
C         75.99623       34.94625        7.45505
C         76.94431       34.94789        6.24739
C         76.94129       33.55395        5.59431
N         77.67321       33.54771        4.32936
H         76.88322       34.91631       10.17785
H         77.94207       36.82366        8.22934
H         75.63554       37.09972        7.46604
H         75.00774       36.20453        8.85727
H         74.98365       34.69694        7.07251
H         76.28745       34.14425        8.16547
H         77.98362       35.21006        6.54201
H         76.57786       35.70167        5.51732
H         75.89437       33.23423        5.39339
H         77.39802       32.82080        6.29725
H         77.18474       34.16329        3.63858
H         78.65525       33.87642        4.46881
H         77.68747       32.57209        3.95197
N         76.13277       38.08389       10.87364
C         75.21356       37.08705       11.44397
C         75.57002       36.68871       12.86979
O         76.57338       37.13011       13.40872
C         73.76440       37.59765       11.32902
C         73.62149       39.05313       11.61381
O         74.03072       39.65671       12.76132
O         73.19227       39.75726       10.71415
H         76.14200       39.00344       11.33716
H         75.24288       36.12562       10.91821
H         73.04358       37.01613       11.93716
H         73.44149       37.45176       10.27274
N         74.78636       35.76311       13.50206
C         75.06400       35.13003       14.77834
C         75.19511       36.07276       15.94557
O         74.35424       36.93626       16.13889
H         73.94894       35.40890       13.01732
H         75.97870       34.50968       14.68374
H         74.22238       34.44077       15.00691
N         76.22696       35.89718       16.81533
C         76.44578       36.69983       18.00777
C         76.44468       35.82216       19.24914
O         77.12323       34.80538       19.24739
C         77.79843       37.42349       17.87778
C         77.73215       38.40419       16.73817
O         76.55356       39.04846       16.53561
O         78.74642       38.76969       16.17109
H         76.90563       35.14420       16.62648
H         75.66102       37.47370       18.10539
H         78.61001       36.67767       17.71521
H         78.02029       37.98060       18.81369
N         75.78062       36.16654       20.39268
C         75.00901       37.38800       20.54549
C         73.62449       37.24238       19.96714
O         73.23996       36.14139       19.59619
H         75.89177       35.56568       21.22428
H         75.57095       38.25658       20.14002
H         74.86221       37.59553       21.62754
N         72.78643       38.31701       19.94810
C         71.34434       38.18593       19.74805
C         70.88712       38.30162       18.28939
O         69.92044       39.00093       18.02038
C         70.56873       39.12641       20.71526
C         70.87188       40.61995       20.50507
O         70.87743       38.78216       22.04403
H         73.16657       39.20080       20.31243
H         71.04911       37.15597       20.05408
H         69.48118       38.95952       20.52285
H         70.02776       38.76950       22.55769
H         70.18396       41.23023       21.12560
H         71.90442       40.87766       20.81723
H         70.74383       40.91366       19.44448
N         71.43939       37.52319       17.31689
C         70.81818       37.35697       16.00330
C         71.08954       38.54362       15.10023
O         72.23941       38.83658       14.81171
C         71.26946       36.03536       15.31345
C         71.07845       34.78431       16.21878
C         70.55009       35.83970       13.96300
C         69.62939       34.47338       16.60678
H         72.23457       36.92846       17.56620
H         69.72288       37.24807       16.15497
H         72.34830       36.10744       15.09106
H         71.66307       34.89532       17.15390
H         71.49616       33.89933       15.69419
H         70.89319       34.90245       13.47762
H         69.44889       35.79909       14.09660
H         70.77356       36.67496       13.26806
H         69.01696       34.25024       15.71020
H         69.61403       33.57540       17.25898
H         69.17079       35.31009       17.17207
N         70.04072       39.22873       14.57417
C         70.15280       40.32694       13.62198
C         69.62444       41.62422       14.22091
O         69.52732       42.60520       13.49536
C         69.39831       39.96095       12.30935
C         67.91805       39.61812       12.51930
O         70.00935       38.86003       11.69221
H         69.09263       38.95028       14.86387
H         71.20856       40.51048       13.34506
H         69.43659       40.83515       11.61588
H         70.85981       39.18815       11.30781
H         67.39015       40.43147       13.05782
H         67.42726       39.46512       11.53496
H         67.81003       38.66985       13.08674
N         69.26136       41.70735       15.53316
C         68.64000       42.88448       16.13020
C         69.58051       44.08705       16.06542
O         70.58096       44.08352       16.76967
C         68.24486       42.54942       17.59666
C         67.41545       43.63862       18.26297
O         67.49335       41.35845       17.62123
H         69.38736       40.87960       16.13103
H         67.71423       43.09117       15.54850
H         69.18865       42.41726       18.18289
H         67.94116       40.73378       18.25167
H         66.46109       43.77266       17.71118
H         67.18116       43.32485       19.30369
H         67.96899       44.59815       18.29546
N         69.35158       45.11728       15.18707
C         70.24875       46.26534       14.99239
C         71.69791       45.81036       14.93686
O         72.51691       46.25797       15.73042
C         70.03301       47.33118       16.08302
C         68.66464       48.01553       15.96826
C         68.56936       49.16209       16.98179
C         67.27018       49.95940       16.82403
N         67.26798       51.11652       17.71948
H         68.54639       45.03907       14.54753
H         70.01511       46.74022       14.01266
H         70.80184       48.12370       15.94182
H         70.16750       46.88388       17.09253
H         67.84297       47.28337       16.12423
H         68.57145       48.44495       14.94536
H         69.42258       49.85501       16.81194
H         68.63894       48.75784       18.01566
H         66.39832       49.30578       17.04806
H         67.17968       50.32023       15.77491
H         68.06028       51.75546       17.47498
H         66.37047       51.63998       17.60612
H         67.36265       50.80707       18.71382
N         72.04839       44.81914       14.08015
C         73.31277       44.11025       14.20821
C         73.16815       42.76015       13.54593
O         73.22983       41.77850       14.27044
C         74.54804       44.92577       13.75213
C         75.83637       44.64303       14.55783
C         76.36171       43.23746       14.50694
O         77.43450       43.00985       13.97250
O         75.72596       42.24780       15.15921
H         71.30415       44.43853       13.47992
H         73.43828       43.92638       15.30048
H         74.34837       46.00300       13.92371
H         74.74746       44.81333       12.67371
H         75.67661       44.90776       15.62600
H         76.61905       45.32398       14.16032
N         72.87680       42.57428       12.22255
C         72.72984       43.58240       11.19001
H         71.92198       44.29914       11.42041
H         73.67924       44.10926       10.99881
H         72.45481       43.08366       10.23428
H         72.71039       41.61637       11.92024
Ca        75.27069       39.36011       14.66784
O         74.06201       40.48136       17.40821
H         74.49403       40.35159       18.28974
H         73.51666       41.30066       17.51505
O         77.45164       40.18826       13.26467
H         78.13980       39.71466       12.73654
H         77.02208       40.81146       12.62594

Ca 1.0



