%chk=apoCaM-CA-Ng.loop3.water4.frame126.chk
%nprocshared=20
%mem=10GB
%nosave
#b3lyp/svp scf=(tight,noincore,xqc) Test 
#IOP(5/87=12) Density=Current Pop=(MK,readradii) iop(6/33=2) iop(6/42=6)

apoCaM-CA-Ng.loop3.water4.frame126 

   0  1 
C         60.49395       74.17365        1.18363
C         60.85269       74.49352        2.60268
O         59.98507       74.91929        3.35187
H         59.41867       74.38204        0.99416
H         61.10549       74.79060        0.49341
H         60.68691       73.09827        0.98706
N         62.13305       74.31274        3.04237
C         62.56529       74.55901        4.41602
C         62.40905       76.01428        4.83428
O         62.54237       76.28919        6.02006
C         61.84383       73.60691        5.39838
C         62.13450       72.16877        5.07387
O         61.22436       71.40139        4.80638
O         63.40368       71.71660        5.09207
H         62.83813       73.96498        2.37455
H         63.65168       74.33180        4.50221
H         60.74905       73.78831        5.39513
H         62.20937       73.79060        6.42994
N         62.21535       77.01870        3.92727
C         62.10046       78.40676        4.35119
C         60.76290       78.62080        5.02063
O         59.73528       78.52815        4.36273
C         62.28750       79.38962        3.17480
C         63.69177       79.31616        2.53069
C         64.86934       79.61978        3.48727
C         64.82933       81.00915        4.15403
N         64.94232       82.09520        3.17959
H         62.20486       76.80451        2.91986
H         62.90218       78.62321        5.08505
H         62.11352       80.42723        3.53104
H         61.52426       79.17945        2.39342
H         63.72272       80.02433        1.67698
H         63.84735       78.30042        2.10957
H         65.82049       79.52485        2.92103
H         64.90624       78.84977        4.28467
H         65.68645       81.07739        4.86003
H         63.90321       81.13154        4.75575
H         64.12642       82.09743        2.52798
H         64.95852       83.00810        3.68909
H         65.83249       81.99773        2.63894
N         60.71636       78.88985        6.35297
C         59.49155       79.12830        7.09613
C         59.61457       80.48741        7.76671
O         60.63407       80.75602        8.38721
C         59.28262       77.97813        8.09858
C         57.91340       78.01948        8.72801
O         57.13253       77.09681        8.55477
O         57.54048       79.06089        9.49109
H         61.60174       78.90856        6.88298
H         58.60850       79.11339        6.41779
H         60.07308       77.98357        8.87874
H         59.36257       77.01789        7.53978
N         58.61504       81.40272        7.66606
C         58.68297       82.75536        8.20218
C         59.01394       82.81991        9.67952
O         59.93666       83.53846       10.03728
H         57.75537       81.13309        7.16665
H         57.69868       83.24386        8.03990
H         59.44409       83.33619        7.63665
N         58.32081       82.08552       10.59291
C         58.58920       82.13410       12.03149
C         59.44070       80.95994       12.50821
O         59.67630       80.85153       13.70458
C         57.27766       82.28787       12.83121
C         56.37897       81.07638       12.78517
N         56.10015       80.39369       13.91731
O         55.88400       80.71398       11.72931
H         57.61373       81.43157       10.23921
H         59.18858       83.04040       12.26934
H         56.71592       83.17428       12.46532
H         57.55126       82.48945       13.89010
H         56.49730       80.67243       14.82586
H         55.48254       79.57694       13.88149
N         60.02408       80.10364       11.62347
C         60.95574       79.05974       12.00363
C         60.26902       77.91879       12.69306
O         60.64566       77.57202       13.80229
H         59.87162       80.23391       10.61893
H         61.77520       79.48582       12.62432
H         61.41624       78.64031       11.08303
N         59.26086       77.26376       12.05530
C         58.60316       76.08247       12.59123
C         57.15826       76.36672       12.91632
O         56.66112       77.44836       12.64147
C         58.69533       74.93313       11.56000
C         60.11802       74.51753       11.29165
C         60.66366       74.60139        9.99883
C         60.90822       74.01923       12.33973
C         61.98136       74.19388        9.76491
C         62.22292       73.61632       12.10395
C         62.76454       73.70080       10.81436
O         64.03156       73.30894       10.57351
H         58.95656       77.60840       11.13666
H         59.07371       75.77559       13.54802
H         58.19753       75.25491       10.61676
H         58.15506       74.03516       11.92585
H         60.07239       74.97541        9.17171
H         60.50512       73.93863       13.34095
H         62.39466       74.25839        8.76762
H         62.81663       73.23557       12.92491
H         64.60164       72.95937       11.27347
N         56.42366       75.39593       13.53095
C         55.02485       75.57079       13.88170
C         54.92345       76.63845       14.95361
O         54.32625       77.66765       14.70282
C         54.37940       74.22535       14.34716
C         54.58711       73.05646       13.33885
C         52.88039       74.41469       14.64497
C         54.09620       73.32812       11.91634
H         56.88826       74.50644       13.75090
H         54.47795       75.90187       12.97109
H         54.86228       73.89776       15.29314
H         54.07668       72.15013       13.72998
H         55.66275       72.79593       13.26934
H         52.44145       73.46133       15.00874
H         52.72764       75.17530       15.43673
H         52.32777       74.74537       13.74186
H         54.28269       72.43195       11.28807
H         53.01050       73.54812       11.89661
H         54.66092       74.17004       11.46882
N         55.49166       76.46499       16.17610
C         55.44681       77.46873       17.23585
C         54.02394       77.87594       17.59089
O         53.77032       79.06915       17.67556
C         56.19045       76.96531       18.48207
O         55.59825       75.79319       18.97286
H         55.98939       75.57956       16.35780
H         55.98906       78.38095       16.89512
H         56.17491       77.75001       19.27059
H         57.24940       76.76958       18.19226
H         56.28191       75.35189       19.54068
N         53.04144       76.94438       17.78440
C         51.66679       77.25852       18.18565
C         50.90291       78.17234       17.22088
O         49.77786       78.52860       17.55285
C         51.67617       77.86265       19.59870
H         53.27968       75.94901       17.66656
H         51.09821       76.30453       18.25521
H         52.19398       78.84323       19.62227
H         50.63714       78.00955       19.96437
H         52.18864       77.17028       20.30016
N         51.42206       78.60519       16.03457
C         50.77313       79.58506       15.17245
C         50.48177       79.03067       13.79080
O         50.84226       77.89931       13.49216
C         51.67847       80.81787       15.06932
H         52.33457       78.26220       15.73099
H         49.80208       79.90377       15.61115
H         52.65900       80.54256       14.62422
H         51.21398       81.60960       14.44592
H         51.85894       81.23588       16.08234
N         49.75572       79.78436       12.91562
C         49.30555       79.36337       11.59303
C         48.65825       77.99105       11.65856
O         49.03219       77.09937       10.90826
C         50.41066       79.47441       10.50589
C         50.99370       80.89705       10.42412
C         51.71368       81.16501        9.12189
O         51.27591       82.02932        8.37933
O         52.82147       80.50194        8.73442
H         49.40572       80.69786       13.24607
H         48.50949       80.07769       11.28192
H         49.91543       79.24532        9.53539
H         51.22689       78.73948       10.65650
H         51.65607       81.09308       11.29438
H         50.14915       81.61977       10.47089
N         47.68559       77.74743       12.57860
C         47.06807       76.44746       12.71725
H         46.53576       76.17866       11.78109
H         47.84347       75.68234       12.93798
H         46.33977       76.46280       13.55556
H         47.39299       78.49989       13.22043
Ca        54.05310       78.94980        9.79237
O         53.55384       78.49268       12.38133
H         53.04037       79.32619       12.52026
H         52.90121       77.83596       12.03302
O         53.84218       76.06100        9.87960
H         54.18855       75.49518        9.14495
H         52.93160       75.71495       10.05655
O         54.17137       77.86827        6.95750
H         54.99132       77.76845        6.41197
H         53.86261       78.79098        6.77402
O         55.51729       81.31104        8.40912
H         55.40275       81.89073        7.61489
H         55.28858       81.89249        9.17672

Ca 1.0



