%chk=apoCaM-CA-Ng.loop2.water2.frame1395.chk
%nprocshared=20
%mem=10GB
%nosave
#b3lyp/svp scf=(tight,noincore,xqc) Test 
#IOP(5/87=12) Density=Current Pop=(MK,readradii) iop(6/33=2) iop(6/42=6)

apoCaM-CA-Ng.loop2.water2.frame1395 

   -2  1 
C         34.99447       93.69780       38.58951
C         34.95853       92.42748       39.39349
O         35.24548       91.38011       38.83244
H         35.73375       94.40147       39.02656
H         35.29438       93.48711       37.54069
H         33.98784       94.16549       38.57694
N         34.62433       92.39796       40.71573
C         34.27016       93.56912       41.51394
C         32.82957       93.50626       42.02127
O         32.18504       94.54650       42.00309
C         35.31716       93.84794       42.62338
C         35.53549       92.76734       43.64696
O         36.33413       92.94330       44.55269
O         34.83268       91.62988       43.60011
H         34.63762       91.47748       41.17748
H         34.31723       94.48891       40.89401
H         35.01614       94.77569       43.15911
H         36.29507       94.04034       42.13191
N         32.22972       92.34216       42.42698
C         30.83022       92.27640       42.85007
C         30.64547       91.76166       44.27526
O         29.51735       91.80462       44.74776
C         30.05813       91.38094       41.87458
H         32.75393       91.45890       42.38680
H         30.37264       93.28877       42.81736
H         28.97966       91.34404       42.13865
H         30.15035       91.77672       40.84062
H         30.46604       90.34653       41.89512
N         31.66660       91.22608       45.00881
C         31.48003       90.67287       46.35030
C         32.63179       91.03927       47.28294
O         33.58189       91.68683       46.86708
C         31.25850       89.14222       46.25373
C         32.38699       88.40123       45.58452
O         32.18832       87.81228       44.53377
O         33.62959       88.42928       46.10039
H         32.58550       91.10939       44.57134
H         30.55848       91.09658       46.80772
H         30.32836       88.97662       45.66478
H         31.08929       88.71126       47.26183
N         32.58077       90.67021       48.59286
C         33.63117       90.93916       49.56137
C         34.82126       90.01566       49.37745
O         35.51630       90.10837       48.37619
H         31.73004       90.20213       48.93940
H         33.20443       90.74921       50.56918
H         33.93168       92.00876       49.54025
N         35.08544       89.07048       50.32788
C         36.17886       88.09912       50.27631
C         35.55653       86.71845       50.04631
O         34.33342       86.63291       50.06225
C         36.93668       88.21995       51.62598
C         38.25423       87.50538       51.80283
N         38.85876       87.53273       53.01421
O         38.79932       86.93240       50.87530
H         34.44144       88.99839       51.13151
H         36.85156       88.33425       49.42259
H         36.24336       87.88275       52.42787
H         37.16016       89.29504       51.80370
H         38.41978       88.02170       53.80906
H         39.76218       87.05992       53.16407
N         36.28973       85.59581       49.76840
C         35.63118       84.33062       49.46598
C         34.80666       84.46267       48.19566
O         34.98045       85.44057       47.48268
H         37.31274       85.62318       49.72796
H         34.98613       84.07811       50.33316
H         36.37212       83.51248       49.33272
N         33.83607       83.58081       47.83907
C         33.45186       82.39596       48.59339
C         34.44858       81.28129       48.37186
O         34.91096       80.70533       49.34711
C         32.02299       81.94105       48.20467
C         30.99187       83.01904       48.58022
O         31.94738       81.65966       46.83085
H         33.29118       83.81446       46.99391
H         33.38588       82.62787       49.67979
H         31.78999       81.02037       48.79022
H         31.10644       81.15178       46.68865
H         29.96729       82.66963       48.33714
H         31.03665       83.22976       49.67088
H         31.17852       83.96578       48.03102
N         34.84280       80.93969       47.10860
C         35.77680       79.85239       46.83336
C         37.18899       80.40067       46.61223
O         37.30781       81.58067       46.31271
C         35.23989       78.91921       45.69219
C         34.89445       79.60154       44.33538
C         33.97667       78.18819       46.18404
C         36.05768       80.28011       43.61816
H         34.51191       81.51398       46.32073
H         35.83327       79.22951       47.72810
H         35.99519       78.13556       45.48428
H         34.07038       80.33630       44.45537
H         34.52535       78.80906       43.64682
H         33.15790       78.90885       46.39670
H         33.61975       77.46782       45.41617
H         34.19466       77.61155       47.10775
H         36.39991       81.17658       44.15798
H         36.90056       79.57568       43.48669
H         35.71944       80.62217       42.61703
N         38.33472       79.65915       46.76708
C         38.41050       78.29921       47.31412
C         39.77593       77.64348       47.09759
O         40.74080       78.30558       46.74227
C         38.15773       78.30095       48.85609
C         39.14263       79.17195       49.59601
O         39.17501       80.37629       49.39584
O         39.97804       78.62828       50.50100
H         39.21817       80.12974       46.51741
H         37.68188       77.66019       46.78120
H         38.23275       77.26196       49.24192
H         37.15821       78.65242       49.14667
N         39.90757       76.30748       47.34226
C         41.17039       75.57961       47.34007
C         41.16960       74.50153       46.26078
O         40.22494       73.72185       46.24132
C         41.32492       74.87560       48.70711
C         42.63382       74.12862       48.77992
C         42.66501       72.73115       48.62906
C         43.83680       74.82867       48.96328
C         43.88431       72.04879       48.64747
C         45.05295       74.14023       48.99623
C         45.07721       72.75229       48.83302
H         39.05759       75.77290       47.58311
H         42.02286       76.27232       47.22007
H         40.47630       74.16403       48.82530
H         41.25932       75.59390       49.55304
H         41.74997       72.17348       48.47091
H         43.83005       75.90520       49.08067
H         43.90435       70.97510       48.51221
H         45.97703       74.68399       49.14115
H         46.02033       72.22213       48.84761
N         42.21578       74.30039       45.39467
C         43.45095       75.07398       45.31223
C         43.21475       76.51433       44.93492
O         43.71896       77.40475       45.60528
C         44.25407       74.36895       44.20898
C         43.79801       72.93798       44.36905
C         42.29544       73.12949       44.54393
H         43.99980       74.98587       46.27290
H         43.90401       74.69028       43.20157
H         45.35094       74.53737       44.26559
H         44.08425       72.25490       43.54201
H         44.22132       72.54790       45.32428
H         41.79677       73.35528       43.57548
H         41.86438       72.21422       45.00554
N         42.41248       76.80884       43.87681
C         42.11264       78.17050       43.47024
C         43.32637       78.73736       42.74014
O         43.64492       78.19650       41.68974
C         40.87353       78.18695       42.54441
C         39.62336       77.61753       43.25415
C         38.40881       77.55802       42.36920
O         37.26323       77.04799       42.86056
O         38.44339       77.95049       41.21328
H         41.96627       76.02715       43.37317
H         41.81640       78.74586       44.36253
H         41.08329       77.57999       41.63555
H         40.66365       79.23376       42.23186
H         39.38651       78.24028       44.14324
H         39.81677       76.58101       43.59919
N         44.08995       79.78407       43.17587
C         43.93668       80.52269       44.41349
H         43.77140       81.59477       44.18135
H         43.11402       80.17748       45.05662
H         44.87432       80.42968       45.00171
H         44.88039       80.07580       42.57929
Ca        34.88872       90.01503       45.14861
O         36.60076       87.39169       45.89010
H         36.19493       87.72241       46.73074
H         35.84410       87.00497       45.38089
O         36.61482       88.70885       42.87027
H         37.36578       88.20926       43.27883
H         36.01498       88.00673       42.51300

Ca 1.0



