%chk=apoCaM-CA-Ng.loop4.water4.frame260.chk
%nprocshared=20
%mem=10GB
%nosave
#b3lyp/svp scf=(tight,noincore,xqc) Test 
#IOP(5/87=12) Density=Current Pop=(MK,readradii) iop(6/33=2) iop(6/42=6)

apoCaM-CA-Ng.loop4.water4.frame260 

   -3  1 
C         28.06669       55.79936       96.59193
C         28.20233       57.07928       97.35293
O         27.77253       57.12113       98.48971
H         27.48465       55.97102       95.66453
H         29.07655       55.41515       96.34002
H         27.54325       55.03661       97.21031
N         28.82671       58.15678       96.79739
C         29.06567       59.42029       97.48897
C         29.88911       59.22895       98.74093
O         29.42327       59.56037       99.81298
C         27.80248       60.31131       97.67347
C         26.48825       59.75368       98.19402
O         26.30216       59.12775       99.38052
O         25.49972       59.91852       97.49658
H         29.20917       58.05718       95.84477
H         29.72039       60.04892       96.84161
H         27.57305       60.71433       96.65967
H         28.08969       61.19519       98.28484
N         31.16460       58.74803       98.63686
C         32.15050       58.60910       99.71398
C         32.60806       59.98136      100.21776
O         33.73729       60.35047       99.92396
C         31.68932       57.62319      100.82282
C         32.76026       57.41349      101.92873
C         31.27993       56.27726      100.19313
C         34.06288       56.75204      101.46467
H         31.48576       58.47519       97.69446
H         33.04482       58.15200       99.23338
H         30.79540       58.04500      101.32829
H         32.32875       56.77199      102.72638
H         33.00433       58.39351      102.39152
H         30.41791       56.41043       99.50677
H         32.11334       55.83253       99.61121
H         30.98271       55.55457      100.97325
H         34.75041       56.65583      102.32956
H         33.87385       55.73127      101.07281
H         34.57479       57.35810      100.69134
N         31.79346       60.81103      100.93314
C         32.13768       62.19285      101.23541
C         33.08945       62.29677      102.42584
O         34.20120       62.75557      102.20323
C         30.85149       63.04842      101.32871
C         31.13490       64.47903      101.68638
O         31.84997       65.16510      100.97391
O         30.59092       65.01263      102.79695
H         30.86222       60.49346      101.20833
H         32.66611       62.61535      100.34795
H         30.13187       62.62709      102.04977
H         30.33519       63.01981      100.34374
N         32.79427       61.92548      103.70847
C         31.51930       61.37243      104.14586
C         31.47458       61.06590      105.63769
O         32.46201       61.30406      106.31804
H         33.54696       62.05541      104.40099
H         31.34391       60.44080      103.57648
H         30.73520       62.11280      103.96479
N         30.39077       60.50671      106.26383
C         29.10783       60.11710      105.67673
C         29.32960       59.15500      104.51288
O         28.94292       59.46825      103.39579
C         28.26155       61.36791      105.33597
C         26.79630       61.08062      105.12252
O         26.34439       59.95380      105.23978
O         25.95925       62.09828      104.84907
H         30.49572       60.30254      107.27021
H         28.53315       59.59209      106.47205
H         28.65544       61.88650      104.44400
H         28.31226       62.06586      106.19877
N         30.02742       57.99135      104.66374
C         30.49037       57.48004      105.93809
C         31.93779       57.79710      106.16351
O         32.59934       58.35115      105.29548
H         30.28168       57.45324      103.82573
H         30.29867       56.38715      105.99842
H         29.93148       57.93319      106.77615
N         32.48906       57.47867      107.36043
C         33.85826       57.79661      107.72680
C         34.73621       56.56635      107.58394
O         35.92812       56.66433      107.83257
C         33.87561       58.34120      109.17329
C         32.98749       59.59244      109.32983
C         32.88552       60.08859      110.75216
N         32.10614       61.15919      111.03213
O         33.48529       59.52616      111.65712
H         31.91175       56.95873      108.04215
H         34.27806       58.56794      107.04269
H         34.91639       58.59162      109.47378
H         33.49588       57.54413      109.85180
H         31.95448       59.35509      109.00021
H         33.38808       60.40793      108.69124
H         31.58627       61.64057      110.28323
H         32.01383       61.50383      111.99930
N         34.21128       55.37763      107.16023
C         34.98236       54.15853      106.97687
C         34.55750       53.09425      107.97717
O         35.18765       52.04358      107.99408
C         34.85915       53.65694      105.50649
C         35.52798       54.64539      104.54192
C         33.40109       53.40990      105.06402
H         33.20665       55.30727      106.96456
H         36.05754       54.34749      107.18843
H         35.40948       52.69389      105.42411
H         35.48105       54.25895      103.50118
H         35.02726       55.63626      104.57805
H         36.59766       54.77549      104.81173
H         33.38152       52.98295      104.03901
H         32.89532       52.69563      105.74638
H         32.81398       54.35258      105.03055
N         33.53327       53.29059      108.85967
C         33.17059       52.33532      109.89206
C         31.77762       51.79564      109.65926
O         31.62914       50.58324      109.61415
C         33.23392       53.00125      111.28153
C         34.60488       53.53651      111.60696
N         34.78372       54.84876      111.88927
O         35.56118       52.77603      111.63112
H         32.98881       54.16418      108.83650
H         33.87434       51.47160      109.90511
H         32.96375       52.25023      112.05528
H         32.49216       53.82678      111.33274
H         33.98935       55.50559      111.88466
H         35.71999       55.21123      112.12205
N         30.70080       52.63272      109.54990
C         29.32379       52.14180      109.53850
C         28.60861       52.50442      108.24871
O         29.11386       53.33463      107.51643
C         28.57054       52.78158      110.72815
C         29.39510       52.76842      111.99886
C         29.76859       51.56531      112.61774
C         29.83187       53.98760      112.55194
C         30.56824       51.58418      113.76773
C         30.63171       54.00343      113.69536
C         31.00460       52.80481      114.30729
O         31.78469       52.83949      115.40632
H         30.85024       53.65257      109.55151
H         29.32065       51.03555      109.64328
H         27.58382       52.29596      110.88442
H         28.37552       53.84520      110.46171
H         29.44964       50.61665      112.20597
H         29.56939       54.93110      112.08888
H         30.85511       50.65079      114.23431
H         30.96853       54.95015      114.09989
H         32.07374       52.03515      115.85947
N         27.39220       51.94226      107.96459
C         26.49123       52.23354      106.84018
C         26.99906       51.82126      105.45415
O         26.36584       50.97665      104.83546
C         26.01841       53.70371      106.85178
C         24.82919       53.90751      105.89121
C         24.31433       55.31608      105.92192
O         23.87809       55.85472      107.07606
O         24.25034       55.96739      104.89274
H         27.03413       51.25823      108.64923
H         25.57910       51.61957      107.03061
H         26.85359       54.38654      106.58569
H         25.67610       53.95407      107.88002
H         23.99764       53.23555      106.19566
H         25.12509       53.64744      104.85101
N         28.07478       52.42226      104.86883
C         28.50558       52.19493      103.48990
C         28.89331       50.74806      103.19537
O         29.11234       50.45168      102.02828
C         29.73561       53.08442      103.15788
C         29.55285       54.60859      103.32494
C         28.68061       55.29099      102.30605
O         28.12165       54.67214      101.41508
O         28.59369       56.63632      102.36102
H         28.57047       53.13314      105.39655
H         27.65549       52.46007      102.82412
H         30.09301       52.89229      102.12227
H         30.54939       52.77643      103.85277
H         30.56210       55.05998      103.23051
H         29.18506       54.87103      104.33479
N         29.02327       49.80148      104.17100
C         29.38910       48.42532      103.89479
H         30.33736       48.18416      104.41846
H         28.58953       47.75096      104.26583
H         29.53108       48.22867      102.81087
H         28.87863       50.04794      105.15909
Ca        27.53260       58.07091      100.97317
O         26.79733       61.21720      101.79240
H         27.42326       61.95391      102.00628
H         26.18086       61.60202      101.11999
O         24.30394       59.03308      101.50512
H         23.83485       58.95226      102.37289
H         24.00992       59.90581      101.14167
O         25.18881       56.10343      100.85939
H         24.95328       55.57057      101.65982
H         25.88679       55.57125      100.40194
O         26.51632       57.45836      104.07029
H         26.39010       56.57118      103.65234
H         25.99581       58.07401      103.49633

Ca 1.0



