%chk=apoCaM-CA-Ng.loop4.water4.frame750.chk
%nprocshared=20
%mem=10GB
%nosave
#b3lyp/svp scf=(tight,noincore,xqc) Test 
#IOP(5/87=12) Density=Current Pop=(MK,readradii) iop(6/33=2) iop(6/42=6)

apoCaM-CA-Ng.loop4.water4.frame750 

   -3  1 
C          5.63319       30.62903        0.74014
C          6.18305       30.69824       -0.65200
O          5.47180       30.39243       -1.59815
H          4.57160       30.31412        0.73337
H          6.22578       29.90516        1.33869
H          5.69365       31.63149        1.21251
N          7.46321       31.12131       -0.84341
C          8.11237       31.25699       -2.14369
C          7.32304       32.22734       -3.00891
O          6.94491       31.88304       -4.11824
C          8.29041       29.87470       -2.82122
C          8.88538       28.86880       -1.87538
O         10.07460       29.09233       -1.28890
O          8.26303       27.85545       -1.59775
H          8.01555       31.38733       -0.01323
H          9.12470       31.68449       -1.96690
H          8.93757       29.98122       -3.71854
H          7.30398       29.48537       -3.15681
N          6.95297       33.43825       -2.50490
C          6.00274       34.31427       -3.19169
C          6.61268       34.95778       -4.43901
O          7.81990       35.15326       -4.45515
C          5.42301       35.40352       -2.22744
C          6.49714       36.42564       -1.76874
C          4.70339       34.73291       -1.03708
C          5.92041       37.58318       -0.95201
H          7.26087       33.66981       -1.54998
H          5.14472       33.67512       -3.48689
H          4.65241       35.97648       -2.77860
H          6.96416       36.88330       -2.66600
H          7.29479       35.92817       -1.17918
H          4.17193       35.48070       -0.41598
H          3.93695       34.01899       -1.40701
H          5.41048       34.18134       -0.38387
H          6.72800       38.30968       -0.72315
H          5.12991       38.10609       -1.53216
H          5.50082       37.23050        0.01103
N          5.86235       35.40076       -5.49918
C          4.43032       35.14316       -5.65983
C          4.14937       33.66699       -5.90715
O          3.00422       33.25922       -5.76921
C          3.78280       36.01687       -6.75883
C          4.27750       35.74424       -8.15745
O          3.49845       35.35190       -9.01114
O          5.56090       35.97176       -8.49395
H          6.35505       35.93386       -6.22886
H          3.92574       35.43799       -4.72181
H          3.95152       37.08893       -6.51976
H          2.68365       35.84055       -6.73106
N          5.14932       32.80223       -6.24848
C          4.96886       31.36720       -6.34165
C          4.00918       30.92522       -7.41085
O          3.45760       31.73425       -8.14478
H          6.10572       33.15349       -6.39802
H          4.61113       30.98856       -5.36022
H          5.95175       30.89304       -6.55816
N          3.78098       29.59193       -7.54245
C          2.88863       29.01891       -8.53809
C          1.42323       29.41081       -8.36155
O          0.66252       29.09240       -9.26245
C          3.08899       27.47605       -8.62541
C          3.09351       26.72557       -7.30997
O          4.10403       26.13994       -6.95395
O          2.00811       26.66672       -6.52751
H          4.30944       28.96037       -6.92162
H          3.18681       29.41878       -9.53338
H          4.09051       27.31202       -9.07936
H          2.34098       27.02608       -9.31373
N          0.93285       30.11691       -7.29370
C         -0.48672       30.45586       -7.19224
C         -1.37678       29.22828       -7.03073
O         -2.58523       29.35176       -7.16433
H          1.55963       30.43136       -6.54028
H         -0.77589       31.00736       -8.11403
H         -0.66750       31.13006       -6.32719
N         -0.83657       28.01591       -6.71657
C         -1.54251       26.74370       -6.59829
C         -2.52055       26.67469       -5.43963
O         -3.13336       25.62672       -5.28123
C         -2.15951       26.29967       -7.94222
C         -1.06435       26.15626       -9.01534
C         -1.53875       25.58019      -10.32246
N         -0.65630       25.42214      -11.33663
O         -2.70483       25.24769      -10.47581
H          0.16688       27.97828       -6.54804
H         -0.78428       25.96591       -6.34941
H         -2.94698       27.00694       -8.27853
H         -2.62238       25.29909       -7.79632
H         -0.25561       25.49561       -8.63253
H         -0.64014       27.14939       -9.22144
H          0.33072       25.69863      -11.22102
H         -0.95588       25.02297      -12.23804
N         -2.64071       27.67788       -4.52182
C         -3.42317       27.53572       -3.29847
C         -2.50549       27.43449       -2.08258
O         -3.01637       27.24518       -0.98912
C         -4.48118       28.66191       -3.16259
C         -3.85937       30.05906       -3.01399
C         -5.44977       28.63448       -4.35429
H         -2.08664       28.53749       -4.63072
H         -3.98469       26.57503       -3.31013
H         -5.07617       28.46015       -2.24374
H         -3.27943       30.34502       -3.91522
H         -4.66191       30.81265       -2.86523
H         -3.19227       30.09468       -2.12719
H         -4.91568       28.84651       -5.30523
H         -5.93274       27.63676       -4.43327
H         -6.24800       29.39455       -4.21961
N         -1.14151       27.48439       -2.20711
C         -0.21818       27.25343       -1.10425
C          0.58764       25.99250       -1.39685
O          0.54502       25.48493       -2.50829
C          0.70131       28.48598       -0.95635
C          1.73358       28.33038        0.13189
N          3.05125       28.27683       -0.17528
O          1.37748       28.22996        1.29651
H         -0.70958       27.63594       -3.12785
H         -0.78002       27.08501       -0.16012
H          0.08954       29.38884       -0.74145
H          1.21481       28.65025       -1.92894
H          3.37198       28.35009       -1.15208
H          3.75547       28.14070        0.56435
N          1.30459       25.39776       -0.40086
C          2.06986       24.16733       -0.61022
C          2.47345       23.55560        0.73421
O          2.27625       24.19689        1.75442
C          3.32355       24.49444       -1.46599
C          3.86250       23.32137       -2.24150
C          5.13086       22.78099       -1.97564
C          3.09747       22.79415       -3.29616
C          5.61912       21.72207       -2.75217
C          3.59054       21.74685       -4.07556
C          4.85053       21.20542       -3.80795
O          5.31199       20.19674       -4.57456
H          1.22757       25.80845        0.53620
H          1.38948       23.45300       -1.12331
H          4.09360       24.95973       -0.81017
H          3.08548       25.25649       -2.23892
H          5.74061       23.17713       -1.17320
H          2.12589       23.21234       -3.53006
H          6.59718       21.30964       -2.53966
H          2.99443       21.36269       -4.89419
H          6.18014       19.79461       -4.43111
N          3.01900       22.30664        0.82671
C          3.42640       21.74172        2.11236
C          4.89168       21.35853        2.05781
O          5.19445       20.29363        1.53798
C          2.52135       20.55441        2.49890
C          2.91159       19.95068        3.86061
C          1.95460       18.86884        4.26659
O          0.65460       19.15855        4.46673
O          2.35163       17.72714        4.43653
H          3.13684       21.73993       -0.02551
H          3.28235       22.47628        2.92128
H          2.56427       19.76565        1.71610
H          1.47555       20.93086        2.55569
H          2.90374       20.73821        4.64470
H          3.93868       19.52885        3.79988
N          5.89157       22.17549        2.50098
C          5.71123       23.54926        2.96597
C          5.09007       23.62905        4.35112
O          5.61300       23.03020        5.28073
C          7.06645       24.28048        2.92974
C          6.91656       25.78713        3.18111
C          8.20186       26.50224        2.88460
O          9.32286       26.20251        3.56733
O          8.23657       27.35409        2.01067
H          6.85756       21.83006        2.37815
H          5.07623       24.07936        2.22243
H          7.47112       24.14995        1.90324
H          7.78701       23.83094        3.64969
H          6.61393       25.97549        4.23321
H          6.12667       26.19205        2.50972
N          3.98561       24.40419        4.55553
C          3.33628       24.57477        5.83916
H          2.27432       24.26083        5.75756
H          3.82072       23.98385        6.64339
H          3.36589       25.64860        6.12317
H          3.58825       24.92866        3.76382
Ca        10.72175       27.63200        0.30774
O         13.29850       28.63371        1.40172
H         13.78827       27.77320        1.40477
H         13.26599       28.89709        0.44750
O          9.07502       24.91568       -0.37248
H          9.11061       24.48433       -1.26276
H          9.22550       24.17455        0.26611
O         12.56877       26.67998       -1.79383
H         12.43169       25.74997       -2.10396
H         13.22927       26.60255       -1.06010
O         12.02982       25.06738        1.27686
H         11.64667       24.17513        1.08466
H         12.78211       24.88780        1.89464

Ca 1.0



