%chk=apoCaM-CA-Ng.loop1.water1.frame791.chk
%nprocshared=20
%mem=10GB
%nosave
#b3lyp/svp scf=(tight,noincore,xqc) Test 
#IOP(5/87=12) Density=Current Pop=(MK,readradii) iop(6/33=2) iop(6/42=6)

apoCaM-CA-Ng.loop1.water1.frame791 

   0  1 
C         28.60283       -0.63264       -2.31976
C         28.10145       -1.17059       -1.01136
O         28.69130       -2.09745       -0.47539
H         29.51201       -1.17681       -2.65230
H         27.81467       -0.74003       -3.09403
H         28.85424        0.44390       -2.20744
N         27.01158       -0.60311       -0.42830
C         26.45413       -1.02131        0.85627
C         24.99003       -1.42837        0.71506
O         24.42898       -1.30024       -0.36475
C         26.70337        0.07166        1.94167
C         27.09097        1.44530        1.41888
O         26.25991        2.21198        0.68836
O         28.21486        1.86667        1.64306
H         26.56456        0.19140       -0.91230
H         26.95545       -1.94837        1.21507
H         27.59247       -0.27271        2.51680
H         25.87232        0.12456        2.67648
N         24.32692       -1.98588        1.77685
C         22.94554       -2.46710        1.71734
C         22.07194       -1.64020        2.64513
O         22.41714       -1.47955        3.80789
C         22.84955       -3.98558        2.01628
C         23.17908       -4.41909        3.45706
C         22.96453       -5.93368        3.62968
C         23.20696       -6.43044        5.06716
N         22.24885       -5.86960        6.02462
H         24.83106       -2.08322        2.67125
H         22.55164       -2.35887        0.68311
H         23.50812       -4.53103        1.30440
H         21.80049       -4.29474        1.80863
H         22.49259       -3.89250        4.14449
H         24.22878       -4.15944        3.71090
H         23.66395       -6.47049        2.95204
H         21.92582       -6.20390        3.33657
H         24.24517       -6.19175        5.38579
H         23.09520       -7.53784        5.06732
H         22.40205       -6.31417        6.95841
H         22.38616       -4.84043        6.13408
H         21.26903       -6.06928        5.71684
N         20.93028       -1.05731        2.17741
C         20.10729       -0.13585        2.96141
C         18.69833       -0.68870        3.10066
O         18.15105       -1.08635        2.08393
C         20.06446        1.22011        2.24105
C         21.45948        1.67037        1.94358
O         22.25895        1.85344        2.84877
O         21.86465        1.76998        0.66629
H         20.65162       -1.23229        1.19921
H         20.57795        0.03012        3.94541
H         19.54006        1.97610        2.86473
H         19.52002        1.11379        1.27749
N         18.01041       -0.77727        4.27854
C         18.40803       -0.21617        5.55815
C         18.70867       -1.31019        6.54285
O         19.63003       -2.07419        6.29206
H         17.09147       -1.24198        4.25734
H         17.58392        0.43697        5.91824
H         19.29279        0.43743        5.49214
N         17.99077       -1.43219        7.69913
C         18.29313       -2.43923        8.71898
C         17.18608       -3.46660        8.89656
O         17.44209       -4.48306        9.52919
C         18.65575       -1.76014       10.05477
C         17.53895       -0.97665       10.70770
O         17.77901       -0.34036       11.86882
O         16.42307       -0.91346       10.21548
H         17.21958       -0.76930        7.86354
H         19.18421       -3.02024        8.39497
H         19.50659       -1.06896        9.87194
H         18.99294       -2.53763       10.77306
N         15.95388       -3.30019        8.34139
C         14.92636       -4.32473        8.32940
C         14.62585       -4.74858        6.90440
O         13.74411       -5.57084        6.71431
H         15.72710       -2.42314        7.85140
H         14.00820       -3.91848        8.80430
H         15.23584       -5.23035        8.89617
N         15.34264       -4.24236        5.85375
C         15.14812       -4.61524        4.46216
C         14.79580       -3.36590        3.66288
O         14.80799       -2.27584        4.21625
C         16.47655       -5.24365        3.95779
C         16.86837       -6.47866        4.77712
O         16.37243       -5.61839        2.60887
H         16.10255       -3.56969        6.01880
H         14.31726       -5.34592        4.35935
H         17.28244       -4.47744        4.08536
H         17.21919       -5.35171        2.16293
H         16.08773       -7.26337        4.68802
H         17.83248       -6.88524        4.40532
H         17.00115       -6.22236        5.84995
N         14.47905       -3.45000        2.33702
C         14.26882       -2.25872        1.51330
C         13.06023       -1.44473        1.99110
O         12.96211       -0.28241        1.62172
C         14.18721       -2.62459       -0.01051
C         15.37548       -3.50741       -0.50644
C         14.08112       -1.37285       -0.90554
C         16.76776       -2.92273       -0.26514
H         14.43179       -4.38040        1.90772
H         15.16816       -1.61865        1.65545
H         13.26462       -3.22333       -0.17680
H         15.25252       -3.69504       -1.59512
H         15.35118       -4.50479       -0.02485
H         14.94787       -0.69585       -0.75660
H         14.03786       -1.66920       -1.97506
H         13.15011       -0.80871       -0.70645
H         16.88900       -1.93521       -0.75389
H         16.95496       -2.83538        0.82168
H         17.53417       -3.61128       -0.67927
N         12.12645       -1.96589        2.84237
C         11.01489       -1.19607        3.39336
C          9.68759       -1.80212        2.97350
O          9.50304       -3.00312        3.11112
C         11.13964       -1.06826        4.93043
C         11.09421       -2.39485        5.69842
O         12.34417       -0.40743        5.22543
H         12.20287       -2.95154        3.13012
H         11.04309       -0.14734        3.02249
H         10.27800       -0.44199        5.26773
H         12.20234        0.09916        6.06736
H         11.93841       -3.05443        5.41132
H         11.17263       -2.18819        6.78665
H         10.13403       -2.92167        5.52820
N          8.71462       -1.00399        2.44782
C          7.40893       -1.47628        1.99067
C          6.66157       -0.30353        1.36354
O          6.35486       -0.37196        0.18171
C          6.59195       -2.17095        3.12442
C          5.27025       -2.75019        2.61096
O          6.32728       -1.28631        4.18347
H          8.92609        0.00201        2.35283
H          7.58040       -2.23838        1.19656
H          7.15586       -3.05458        3.49948
H          6.92838       -1.52973        4.93548
H          4.60591       -1.95346        2.22244
H          5.46196       -3.48428        1.79923
H          4.74349       -3.27520        3.43692
N          6.37645        0.82121        2.08775
C          5.73611        2.00352        1.52308
C          6.62912        3.21834        1.69976
O          7.01608        3.52532        2.81961
C          4.36983        2.27234        2.18068
C          3.37937        1.12956        1.90185
C          1.94681        1.41289        2.38363
C          1.27385        2.56820        1.61777
N         -0.12531        2.71733        2.01524
H          6.64186        0.85801        3.08278
H          5.53745        1.86786        0.43752
H          3.98149        3.20801        1.72831
H          4.47394        2.42882        3.27736
H          3.74776        0.21831        2.41606
H          3.34112        0.92139        0.80987
H          1.94336        1.62001        3.47560
H          1.35234        0.49089        2.20213
H          1.31608        2.36010        0.52506
H          1.80202        3.52505        1.81240
H         -0.65465        1.84090        1.80130
H         -0.18915        2.93031        3.03690
H         -0.55107        3.50601        1.47610
N          6.93338        4.00101        0.62541
C          7.69146        5.24234        0.72820
C          9.14233        4.98370        1.13774
O          9.51016        5.45201        2.20590
C          7.51534        6.06979       -0.56627
C          8.30862        7.38160       -0.56418
C          8.00114        8.17737       -1.80072
O          8.88539        8.44263       -2.59909
O          6.74502        8.60610       -2.03223
H          6.54032        3.74101       -0.29226
H          7.22192        5.86436        1.52611
H          6.43029        6.30191       -0.65865
H          7.78235        5.48495       -1.46391
H          9.39626        7.15166       -0.52975
H          8.04471        7.99046        0.32640
N         10.04508        4.26324        0.40889
C          9.78691        3.65248       -0.87523
H          9.60111        4.42518       -1.64265
H         10.68862        3.09634       -1.20881
H          8.94149        2.93890       -0.80573
H         10.99159        4.13668        0.80125
Ca        24.07753        1.85620        0.40922
O         25.12804        4.10962       -1.65964
H         24.69159        4.96576       -1.42077
H         25.59622        4.29798       -2.51150

Ca 1.0



