%chk=apoCaM-CA-Ng.loop2.water5.frame470.chk
%nprocshared=20
%mem=10GB
%nosave
#b3lyp/svp scf=(tight,noincore,xqc) Test 
#IOP(5/87=12) Density=Current Pop=(MK,readradii) iop(6/33=2) iop(6/42=6)

apoCaM-CA-Ng.loop2.water5.frame470 

   -2  1 
C         38.79045       38.05464       74.95445
C         39.46424       37.29736       73.84750
O         40.68437       37.28047       73.80668
H         37.71174       37.79806       75.01552
H         39.25928       37.78473       75.92538
H         38.89746       39.14574       74.78756
N         38.72875       36.59912       72.93769
C         39.33415       35.75116       71.90898
C         39.98189       36.59973       70.79887
O         39.67343       37.78116       70.71699
C         38.23538       34.79371       71.38231
C         38.70645       33.52921       70.71800
O         40.00997       33.21098       70.63966
O         37.87736       32.72480       70.32545
H         37.70109       36.61590       73.03770
H         40.10407       35.14190       72.42883
H         37.53640       35.35617       70.72402
H         37.65041       34.43447       72.25931
N         40.91419       36.07947       69.93659
C         41.59961       36.86052       68.90262
C         43.09579       36.93916       69.17695
O         43.60172       36.21776       70.02372
C         41.36973       36.23403       67.52341
H         41.19673       35.10006       70.03710
H         41.20691       37.90185       68.88967
H         41.89245       36.81567       66.73306
H         41.76366       35.19418       67.50857
H         40.28693       36.20920       67.28212
N         43.85304       37.86242       68.51878
C         45.25301       38.14100       68.83532
C         46.22328       37.16586       68.20053
O         46.20289       36.95992       66.99498
C         45.61249       39.57681       68.42195
C         44.98464       40.59838       69.34752
O         44.32573       40.19833       70.47140
O         45.18180       41.77972       69.13003
H         43.36688       38.49630       67.86473
H         45.40139       38.10113       69.93651
H         45.33470       39.74755       67.35880
H         46.71430       39.71855       68.51159
N         47.15912       36.57863       68.99533
C         48.20193       35.68729       68.51493
C         48.91879       35.01972       69.67467
O         50.10080       34.72971       69.55391
H         47.14176       36.81547       69.99725
H         48.92435       36.27396       67.90186
H         47.77077       34.88860       67.87676
N         48.23484       34.68166       70.81008
C         48.84841       34.03667       71.96283
C         47.77399       33.62707       72.95608
O         46.92607       34.44731       73.28749
C         49.83980       34.96938       72.69435
C         50.67614       34.14474       73.64712
N         50.56744       34.28227       74.98764
O         51.45133       33.31730       73.18987
H         47.22192       34.86623       70.84662
H         49.38915       33.13611       71.59786
H         49.27370       35.76715       73.22869
H         50.53628       35.47374       71.99376
H         49.90378       34.95127       75.40171
H         51.13237       33.68905       75.61471
N         47.78864       32.39215       73.52534
C         46.79232       31.97727       74.49639
C         47.27000       32.17229       75.91791
O         48.00079       33.11278       76.19425
H         48.56500       31.74831       73.31075
H         46.51810       30.91821       74.29725
H         45.85061       32.55349       74.38003
N         46.84905       31.31562       76.88677
C         47.24710       31.41022       78.29479
C         46.62776       32.60297       79.02304
O         47.04329       32.87233       80.14160
C         46.94111       30.07316       79.02250
C         45.43274       29.75433       79.12489
O         47.64208       29.02700       78.39133
H         46.25424       30.53484       76.57879
H         48.35314       31.53742       78.31766
H         47.32904       30.10775       80.06412
H         47.18098       28.79113       77.54710
H         44.87587       30.02451       78.20482
H         45.28570       28.66817       79.30303
H         44.97747       30.31175       79.96962
N         45.62048       33.34338       78.47423
C         45.06245       34.54732       79.09432
C         45.10453       35.70939       78.11305
O         45.39521       35.49455       76.94284
C         43.65049       34.27761       79.70917
C         42.69223       33.40016       78.85778
C         43.81876       33.61057       81.08783
C         42.33591       33.96899       77.48872
H         45.23035       33.05260       77.56719
H         45.72588       34.89178       79.91810
H         43.15370       35.25145       79.91296
H         41.73980       33.29738       79.42403
H         43.10922       32.37627       78.72513
H         42.83026       33.43539       81.56446
H         44.35342       32.64106       81.00936
H         44.39260       34.28089       81.76478
H         43.20992       33.95525       76.80962
H         41.54411       33.33458       77.03321
H         41.94884       35.00373       77.58569
N         44.88661       36.99335       78.53943
C         45.06540       38.14101       77.65065
C         45.77448       39.33291       78.33246
O         45.70958       40.43870       77.81675
C         43.72244       38.46394       76.96060
C         43.86331       39.27661       75.69947
O         42.86450       39.56089       75.05835
O         45.07486       39.63437       75.22676
H         44.63027       37.16025       79.52493
H         45.75939       37.83390       76.83826
H         43.03879       38.96097       77.67929
H         43.25241       37.50791       76.63570
N         46.59401       39.14005       79.41178
C         47.47522       40.16211       80.00148
C         46.70324       41.28860       80.66562
O         45.89776       40.98674       81.53097
C         48.35412       39.49786       81.08127
C         49.24714       40.46151       81.83103
C         50.45068       40.91790       81.27077
C         48.88256       40.89347       83.11996
C         51.28537       41.77342       81.99963
C         49.71188       41.75756       83.83824
C         50.91764       42.18979       83.28280
H         46.66187       38.18590       79.79324
H         48.13853       40.55212       79.20502
H         48.97517       38.69612       80.62804
H         47.67685       39.00393       81.81195
H         50.74935       40.59798       80.28073
H         47.95119       40.56729       83.56674
H         52.22135       42.10916       81.57325
H         49.42212       42.08552       84.82859
H         51.56646       42.84636       83.84804
N         46.95438       42.61425       80.41482
C         46.20949       43.70076       81.03597
C         44.71951       43.61996       80.70250
O         43.90295       44.06741       81.49468
C         46.84340       44.97067       80.43538
C         48.25883       44.52183       80.13206
C         48.04173       43.11116       79.59675
H         46.38572       43.64864       82.13398
H         46.37812       45.19982       79.45179
H         46.77721       45.87202       81.08565
H         48.84322       45.18536       79.45716
H         48.80183       44.44202       81.10235
H         47.73361       43.09020       78.52994
H         48.99285       42.56269       79.74432
N         44.30772       43.06104       79.52197
C         42.90853       42.94679       79.10203
C         42.13858       41.88098       79.88454
O         40.93465       41.76526       79.70038
C         42.81287       42.58367       77.59743
C         43.64911       43.51893       76.70666
C         43.41102       43.24715       75.25024
O         42.77534       44.05024       74.59082
O         43.93703       42.13386       74.68276
H         45.03602       42.73059       78.87916
H         42.43142       43.94296       79.24295
H         41.74163       42.66872       77.29952
H         43.13460       41.53453       77.42659
H         44.73951       43.40381       76.88442
H         43.37451       44.56672       76.94843
N         42.77979       41.04345       80.74314
C         42.16317       39.96934       81.48628
H         41.10035       39.81845       81.21303
H         42.72133       39.02744       81.28746
H         42.24180       40.19653       82.56977
H         43.77741       41.15150       80.87813
Ca        44.10977       41.13517       72.59017
O         46.88167       40.82053       73.02128
H         47.32018       41.59489       73.45471
H         47.55531       40.46507       72.38981
O         44.38499       38.01014       72.60822
H         44.36072       37.52506       73.46907
H         43.75919       37.50421       72.03737
O         41.80579       39.67881       71.94509
H         41.55871       38.76851       72.22542
H         41.06445       39.96958       71.36001
O         44.87557       43.40821       71.66879
H         45.48429       43.24235       70.91133
H         44.50004       44.30532       71.51278
O         41.59708       42.49963       72.13224
H         41.46266       42.94195       73.00309
H         41.57509       43.23702       71.47491

Ca 1.0



