%chk=apoCaM-CA-Ng.loop2.water5.frame402.chk
%nprocshared=20
%mem=10GB
%nosave
#b3lyp/svp scf=(tight,noincore,xqc) Test 
#IOP(5/87=12) Density=Current Pop=(MK,readradii) iop(6/33=2) iop(6/42=6)

apoCaM-CA-Ng.loop2.water5.frame402 

   -2  1 
C         78.23470       83.16762        3.26550
C         76.93345       82.92926        2.55528
O         76.56833       83.71440        1.69159
H         78.73281       84.08538        2.88619
H         78.05251       83.28602        4.35282
H         78.91285       82.30262        3.10563
N         76.18495       81.83369        2.86044
C         74.92825       81.51898        2.19028
C         73.84945       82.52338        2.55621
O         73.47991       82.59413        3.71955
C         74.46898       80.09579        2.58171
C         73.21908       79.66321        1.85795
O         73.24619       78.69157        1.12021
O         72.05855       80.32379        2.03792
H         76.55467       81.17765        3.56676
H         75.11095       81.51640        1.09192
H         74.28888       80.03906        3.67795
H         75.28880       79.38581        2.33431
N         73.27486       83.30870        1.60249
C         72.12195       84.16183        1.86323
C         72.53051       85.60329        2.02547
O         73.19950       86.14313        1.15433
C         71.11724       84.05034        0.71222
H         73.63722       83.26396        0.63735
H         71.58874       83.82681        2.78094
H         70.77793       83.00071        0.59393
H         70.22968       84.68727        0.92283
H         71.57360       84.39222       -0.24239
N         72.10204       86.30847        3.11328
C         72.36988       87.73312        3.29972
C         71.75267       88.55081        2.16774
O         71.10225       87.98724        1.29624
C         71.84060       88.20418        4.67584
C         72.46067       87.39896        5.78811
O         73.79928       87.37950        5.91653
O         71.76192       86.75230        6.55064
H         71.54075       85.81460        3.82458
H         73.47130       87.88915        3.28130
H         70.73325       88.10531        4.70933
H         72.10065       89.27178        4.83853
N         71.94431       89.89548        2.09517
C         71.47598       90.66020        0.94931
C         71.81085       92.12150        1.08141
O         70.92286       92.95361        0.96372
H         72.47352       90.36698        2.84399
H         70.37801       90.53620        0.82321
H         71.98340       90.27131        0.03884
N         73.09053       92.49972        1.34103
C         73.52506       93.88261        1.47712
C         74.66033       94.18347        0.49011
O         75.26026       95.24556        0.57685
C         73.89865       94.11935        2.95461
C         72.68716       93.86982        3.83614
N         72.69086       92.89110        4.77160
O         71.68260       94.55103        3.68574
H         73.80293       91.76558        1.48307
H         72.70334       94.59663        1.24462
H         74.22390       95.17159        3.10557
H         74.73517       93.44814        3.24394
H         73.51878       92.29600        4.91422
H         71.85366       92.71882        5.34970
N         74.93715       93.32079       -0.53741
C         75.89985       93.54729       -1.60543
C         77.34855       93.47246       -1.18372
O         77.64973       93.44965        0.00128
H         74.37112       92.46876       -0.64568
H         75.69788       94.51574       -2.11386
H         75.75263       92.74002       -2.35462
N         78.31354       93.41701       -2.15420
C         79.75004       93.44888       -1.87258
C         80.22904       92.28998       -1.00414
O         81.32823       92.38089       -0.47759
C         80.60417       93.52204       -3.17569
C         80.73456       92.17462       -3.91653
O         80.12321       94.53482       -4.02923
H         77.99646       93.40549       -3.13458
H         79.91717       94.39379       -1.30930
H         81.64400       93.79765       -2.89655
H         79.47239       94.13474       -4.66573
H         79.74209       91.75020       -4.17648
H         81.33331       92.30332       -4.84246
H         81.28943       91.45695       -3.28147
N         79.47269       91.16657       -0.82994
C         79.85228       90.06095        0.03908
C         78.82361       89.99995        1.14476
O         77.64131       89.88988        0.85057
C         79.90987       88.70877       -0.74016
C         80.89560       88.72769       -1.93608
C         80.24268       87.53263        0.20231
C         82.36171       89.00272       -1.57790
H         78.56547       91.08901       -1.31137
H         80.85140       90.23169        0.49319
H         78.90245       88.50757       -1.16841
H         80.55336       89.48600       -2.66315
H         80.84729       87.74564       -2.45595
H         81.22398       87.67662        0.69994
H         79.47106       87.42768        0.99250
H         80.26401       86.57798       -0.36584
H         82.97389       88.98808       -2.50425
H         82.48228       89.99927       -1.10939
H         82.76344       88.22519       -0.89670
N         79.21695       90.02619        2.44808
C         78.27772       89.90359        3.55339
C         78.47982       90.97638        4.62333
O         77.48382       91.43117        5.17277
C         78.39538       88.49080        4.14548
C         77.30478       88.24778        5.14702
O         76.13561       88.33835        4.81149
O         77.60613       87.94906        6.41865
H         80.22605       90.02827        2.64933
H         77.23278       89.98406        3.17771
H         79.39716       88.34022        4.60299
H         78.27057       87.74242        3.33001
N         79.72271       91.39406        5.00989
C         79.97369       92.31015        6.12044
C         80.90830       91.64814        7.12265
O         81.92742       91.10982        6.70420
C         80.62362       93.63621        5.68195
C         79.66226       94.58022        4.99905
C         79.20591       94.34613        3.69251
C         79.22133       95.73205        5.68289
C         78.33238       95.25488        3.08115
C         78.34231       96.62815        5.07259
C         77.90078       96.39243        3.77036
H         80.55094       91.02911        4.51839
H         79.02350       92.58513        6.62328
H         81.53946       93.47650        5.07393
H         80.95223       94.13868        6.62067
H         79.53640       93.47407        3.14374
H         79.55095       95.93695        6.69484
H         77.99071       95.08254        2.07088
H         78.00731       97.50675        5.61023
H         77.22570       97.09319        3.29631
N         80.68558       91.70726        8.46958
C         81.54768       91.12459        9.48735
C         81.83317       89.64869        9.29328
O         82.97349       89.23591        9.43987
C         80.73877       91.31551       10.77944
C         80.06455       92.63797       10.52295
C         79.60670       92.46828        9.07910
H         82.49689       91.70567        9.53605
H         79.92114       90.55992       10.84031
H         81.34109       91.25671       11.71042
H         79.25845       92.91952       11.23265
H         80.85777       93.42137       10.55502
H         78.66286       91.88813        8.98975
H         79.49098       93.48720        8.64886
N         80.81444       88.79200        9.00528
C         80.95227       87.33490        8.99992
C         81.92534       86.81433        7.94184
O         82.23778       85.63183        7.97175
C         79.55363       86.73140        8.77336
C         79.30928       85.28165        9.22660
C         77.87632       84.90286        8.90637
O         77.12719       85.77076        8.19090
O         77.41427       83.83315        9.26796
H         79.88019       89.20530        8.86005
H         81.31338       87.05611       10.01382
H         79.32280       86.84292        7.69398
H         78.81948       87.32988        9.35963
H         79.46395       85.23397       10.32694
H         80.00032       84.56949        8.73192
N         82.42731       87.61923        6.96065
C         83.34947       87.13637        5.95569
H         84.28264       86.77625        6.43806
H         82.88501       86.31171        5.37487
H         83.60912       87.95924        5.25465
H         82.14191       88.60385        6.89873
Ca        75.08372       86.09784        7.28066
O         75.55105       85.59458        4.09208
H         75.30821       86.20824        3.35501
H         75.18804       84.72024        3.81027
O         75.59701       88.58461        8.64167
H         75.17638       88.17416        9.43875
H         75.59382       89.55656        8.82556
O         76.15546       83.40029        6.24854
H         76.80582       82.97998        6.86406
H         75.69871       82.63720        5.81474
O         72.86942       84.05294        6.46719
H         73.45599       84.32767        5.71871
H         72.44617       83.21257        6.16158
O         73.22278       85.59737        9.48453
H         72.55301       85.46768        8.76767
H         72.80963       86.26154       10.09056

Ca 1.0



