%chk=apoCaM-CA-Ng.loop2.water4.frame492.chk
%nprocshared=20
%mem=10GB
%nosave
#b3lyp/svp scf=(tight,noincore,xqc) Test 
#IOP(5/87=12) Density=Current Pop=(MK,readradii) iop(6/33=2) iop(6/42=6)

apoCaM-CA-Ng.loop2.water4.frame492 

   -2  1 
C         68.20818       55.46437       75.16005
C         68.67610       55.52076       73.73490
O         67.97732       55.02885       72.86018
H         67.22719       54.94707       75.23437
H         68.94630       54.91068       75.77626
H         68.09961       56.49447       75.55891
N         69.86961       56.10635       73.43213
C         70.40549       56.19810       72.07839
C         71.70224       55.41796       72.01285
O         72.62361       55.72760       72.75694
C         70.61722       57.67297       71.70367
C         71.12315       57.81859       70.29537
O         72.31178       58.40649       70.06284
O         70.45944       57.40647       69.35702
H         70.43205       56.49784       74.20453
H         69.68397       55.76531       71.35074
H         71.33848       58.13848       72.41106
H         69.65038       58.21456       71.78928
N         71.81156       54.34481       71.17924
C         72.94657       53.42981       71.19871
C         72.48761       52.13584       71.83473
O         71.30741       52.02247       72.13278
C         73.49987       53.23345       69.78745
H         71.00632       54.09487       70.58349
H         73.75986       53.83036       71.84297
H         74.37265       52.54733       69.80142
H         72.71993       52.81131       69.11872
H         73.83277       54.21120       69.37804
N         73.35728       51.13043       72.13038
C         72.96567       50.01279       72.98249
C         72.80372       48.74882       72.16780
O         73.75274       48.29949       71.53981
C         73.96892       49.87944       74.14309
C         73.51745       48.88997       75.18337
O         73.38025       47.71045       74.90212
O         73.26890       49.30616       76.44051
H         74.33890       51.19736       71.81957
H         71.98881       50.23511       73.46288
H         74.05724       50.87260       74.63650
H         74.97314       49.59698       73.76043
N         71.59111       48.12464       72.14394
C         71.34098       46.92919       71.35342
C         69.95494       46.30188       71.51156
O         69.67099       45.39878       70.73733
H         70.83894       48.55409       72.69036
H         72.08601       46.14508       71.61198
H         71.48029       47.20299       70.28526
N         69.06175       46.64675       72.49276
C         67.77175       45.97541       72.65226
C         66.81957       46.31001       71.50532
O         67.07292       47.24339       70.75571
C         67.13805       46.41276       74.00038
C         65.86996       45.68268       74.36072
N         65.88561       44.35187       74.60295
O         64.81924       46.30069       74.44405
H         69.31328       47.34145       73.20391
H         67.96742       44.88082       72.68110
H         66.93550       47.50251       73.94333
H         67.86179       46.24680       74.82794
H         66.76426       43.81695       74.54768
H         65.01751       43.85661       74.85469
N         65.67686       45.58442       71.34201
C         64.62398       45.89421       70.38663
C         63.32908       46.03853       71.15089
O         62.95616       45.08981       71.82812
H         65.52960       44.76206       71.94489
H         64.52441       45.05342       69.66812
H         64.85099       46.81748       69.81103
N         62.61013       47.20007       71.13262
C         61.43471       47.40903       71.98378
C         61.69852       48.47479       73.05156
O         60.86722       48.63343       73.93406
C         60.16979       47.71801       71.14002
C         60.17587       49.10025       70.46865
O         59.95930       46.70586       70.18650
H         62.93566       47.97207       70.53133
H         61.21882       46.47350       72.54399
H         59.29267       47.71453       71.82391
H         60.62086       46.83274       69.45603
H         60.20773       49.89106       71.23893
H         61.03920       49.22117       69.78310
H         59.23658       49.24080       69.89295
N         62.83127       49.23960       73.03135
C         63.20398       50.21578       74.04979
C         64.62261       49.94111       74.49836
O         65.45790       49.64404       73.65395
C         63.04562       51.69738       73.58832
C         63.99537       52.22803       72.47376
C         61.57756       52.00923       73.26579
C         63.83769       51.64777       71.06449
H         63.49366       49.10884       72.26682
H         62.53316       50.11626       74.93291
H         63.29379       52.30928       74.48589
H         65.05304       52.11170       72.79088
H         63.80701       53.32085       72.38677
H         61.44494       53.09383       73.06940
H         61.24227       51.44856       72.37817
H         60.92541       51.73410       74.12260
H         64.16495       50.59916       71.00054
H         62.79642       51.74695       70.69672
H         64.49873       52.21023       70.37247
N         64.99037       50.08854       75.80179
C         66.34802       49.82008       76.25621
C         66.29584       48.89321       77.46227
O         66.93656       49.15527       78.46731
C         67.04711       51.17531       76.50141
C         68.51404       51.06937       76.79570
O         69.26477       52.18236       76.88769
O         69.05774       49.98111       76.90742
H         64.29788       50.42903       76.48684
H         66.91644       49.29630       75.45889
H         66.53859       51.72778       77.32137
H         66.95247       51.77322       75.56863
N         65.46369       47.81430       77.43844
C         65.21877       46.92268       78.57143
C         64.90824       47.71984       79.83731
O         64.06642       48.60487       79.77450
C         64.05366       45.95966       78.19926
C         63.46280       45.17874       79.35469
C         63.75949       43.81993       79.54931
C         62.55491       45.80978       80.22815
C         63.17354       43.11688       80.61044
C         61.96811       45.10434       81.27864
C         62.27912       43.75873       81.47286
H         64.90872       47.66884       76.58268
H         66.12458       46.30891       78.74070
H         64.43481       45.26878       77.41458
H         63.21056       46.52086       77.73843
H         64.44515       43.30709       78.88743
H         62.28232       46.84669       80.08688
H         63.40748       42.07177       80.76320
H         61.26659       45.60209       81.93650
H         61.82047       43.21374       82.28778
N         65.50934       47.43587       81.04221
C         65.15920       48.09228       82.29657
C         65.45841       49.57646       82.36462
O         64.94785       50.22780       83.26544
C         66.03297       47.37911       83.33741
C         66.14558       45.99121       82.75504
C         66.38413       46.30196       81.28233
H         64.07597       47.89949       82.46629
H         67.06478       47.80494       83.31226
H         65.65379       47.43854       84.37954
H         66.91949       45.34325       83.21909
H         65.15110       45.49886       82.85701
H         67.43522       46.61678       81.09559
H         66.12650       45.38911       80.70596
N         66.36513       50.15985       81.52967
C         66.76204       51.55764       81.66321
C         65.64546       52.53592       81.30723
O         65.85011       53.72536       81.51058
C         67.99921       51.87087       80.79613
C         69.26493       51.09767       81.22892
C         70.42945       51.56829       80.40895
O         71.12884       50.72539       79.62866
O         70.70088       52.75904       80.37739
H         66.84560       49.57096       80.83935
H         67.04679       51.73682       82.72433
H         68.22109       52.95623       80.90470
H         67.77171       51.67296       79.72449
H         69.12640       50.00384       81.09432
H         69.48151       51.30550       82.29757
N         64.45621       52.13522       80.76995
C         63.38979       53.05755       80.42946
H         62.47605       52.78933       80.99940
H         63.64518       54.11314       80.66235
H         63.17288       52.98491       79.34341
H         64.28259       51.14106       80.57498
Ca        71.31928       51.69819       77.63556
O         73.31295       53.35689       75.69666
H         72.93101       53.58673       74.81268
H         73.66128       54.21462       76.04749
O         73.99931       52.44110       78.83465
H         74.43687       51.55382       78.79348
H         73.59488       52.47676       79.73774
O         71.05662       54.79767       77.64112
H         70.39465       55.34287       78.13583
H         71.88597       55.33797       77.65643
O         70.49699       52.22246       74.59097
H         69.89101       51.49998       74.28647
H         70.06570       53.05538       74.27609

Ca 1.0



