%chk=apoCaM-CA-Ng.loop1.water3.frame964.chk
%nprocshared=20
%mem=10GB
%nosave
#b3lyp/svp scf=(tight,noincore,xqc) Test 
#IOP(5/87=12) Density=Current Pop=(MK,readradii) iop(6/33=2) iop(6/42=6)

apoCaM-CA-Ng.loop1.water3.frame964 

   0  1 
C         51.20373       97.82525       14.10104
C         50.80149       96.49359       14.67212
O         49.66031       96.34485       15.08285
H         52.25643       97.81600       13.74382
H         50.55153       98.06708       13.23552
H         51.10106       98.61596       14.87153
N         51.69610       95.46918       14.70535
C         51.39013       94.12372       15.18447
C         52.32283       93.73024       16.33207
O         53.53443       93.76769       16.17673
C         51.40616       93.09700       14.02509
C         52.65802       93.01339       13.19044
O         53.66282       93.89426       13.33880
O         52.78118       92.09587       12.39458
H         52.64205       95.66448       14.35507
H         50.34877       94.08227       15.57112
H         50.56341       93.30837       13.33309
H         51.22237       92.09823       14.48168
N         51.79589       93.34811       17.53232
C         52.58513       93.02940       18.72343
C         53.49810       91.82253       18.54340
O         53.01649       90.74143       18.23604
C         51.65985       92.74931       19.93226
C         50.90864       94.00995       20.38620
C         50.05172       93.73421       21.62735
C         49.42319       95.03437       22.14706
N         48.61727       94.78997       23.34213
H         50.76856       93.31457       17.61242
H         53.20673       93.91323       18.98754
H         52.28760       92.41513       20.78892
H         50.94575       91.93036       19.68909
H         50.25807       94.39774       19.57374
H         51.66248       94.78744       20.63852
H         50.69116       93.30499       22.42982
H         49.25483       93.00005       21.37465
H         48.78425       95.48771       21.35698
H         50.23422       95.75439       22.39864
H         49.20679       94.36386       24.09392
H         48.23715       95.70053       23.68838
H         47.81986       94.15342       23.11336
N         54.82785       91.93692       18.84566
C         55.76779       90.80852       18.90955
C         57.12410       91.23617       19.51206
O         57.41862       92.42351       19.50741
C         55.96385       90.13405       17.53167
C         56.35923       91.10999       16.47668
O         55.56651       91.22754       15.40738
O         57.36509       91.79166       16.57872
H         55.15506       92.86718       19.14080
H         55.30995       90.07339       19.57923
H         55.01222       89.65421       17.22038
H         56.72031       89.33466       17.55494
N         58.04616       90.35888       20.02305
C         57.87084       88.92374       20.18893
C         57.00184       88.57502       21.37807
O         55.89583       89.07514       21.49963
H         58.95875       90.74516       20.31403
H         58.86982       88.46262       20.34911
H         57.47793       88.45848       19.27506
N         57.42106       87.65176       22.28565
C         56.58125       87.24826       23.40343
C         56.45055       88.39522       24.38664
O         57.45560       88.82477       24.93746
C         57.16247       85.99494       24.08522
C         56.28910       85.51000       25.20936
O         56.78485       85.42483       26.45809
O         55.13168       85.18471       24.99569
H         58.32977       87.18421       22.14224
H         55.58237       86.95910       23.00276
H         58.18264       86.21121       24.46956
H         57.24108       85.18046       23.33149
N         55.22925       88.93106       24.66705
C         55.04233       89.98035       25.65437
C         55.65085       91.31864       25.28181
O         55.59229       92.20792       26.11934
H         54.39059       88.54253       24.20926
H         55.47280       89.63329       26.61843
H         53.95398       90.14698       25.81015
N         56.20523       91.56729       24.05703
C         56.74993       92.86933       23.67799
C         58.21105       92.72930       23.24348
O         58.71293       91.61857       23.12974
C         55.87332       93.46863       22.53680
C         54.39582       93.57138       22.93402
O         56.32154       94.75342       22.19154
H         56.20464       90.83154       23.33881
H         56.72208       93.56742       24.54329
H         55.94961       92.79029       21.65744
H         56.05033       94.91782       21.25063
H         53.81418       94.00772       22.09386
H         53.97240       92.56966       23.15485
H         54.27729       94.22481       23.82417
N         58.94385       93.84288       22.95601
C         60.28987       93.82254       22.37985
C         61.38883       93.28746       23.29697
O         62.51149       93.20491       22.81738
C         60.69724       95.23749       21.84948
C         60.74445       96.30455       22.98061
C         59.77239       95.65168       20.68776
C         61.33266       97.64176       22.52999
H         58.48060       94.74979       23.07855
H         60.26615       93.14647       21.49509
H         61.71934       95.14916       21.41749
H         61.38648       95.93259       23.80732
H         59.73327       96.49612       23.39440
H         60.11470       96.59392       20.21687
H         59.79153       94.87256       19.89523
H         58.72438       95.78371       21.02485
H         60.71412       98.11458       21.74132
H         61.36387       98.33803       23.39466
H         62.36750       97.49714       22.15435
N         61.17904       92.89901       24.58962
C         62.26346       92.39228       25.43618
C         62.37837       93.21557       26.71217
O         61.49614       94.01144       27.00264
C         62.02153       90.87668       25.68615
C         63.12643       90.15664       26.46607
O         60.79858       90.67522       26.34887
H         60.23021       92.93834       24.98736
H         63.23732       92.49091       24.91000
H         62.00477       90.38534       24.68264
H         60.11717       90.47147       25.65595
H         64.11377       90.31516       25.98096
H         63.16100       90.49326       27.52162
H         62.91991       89.06609       26.48559
N         63.46361       93.06179       27.52483
C         63.60807       93.70811       28.81994
C         64.89947       94.51374       28.89029
O         64.83811       95.69326       29.20948
C         63.54230       92.61676       29.92657
C         63.57698       93.21348       31.33840
O         64.58780       91.68982       29.77940
H         64.21051       92.41832       27.23248
H         62.75356       94.39589       29.01096
H         62.56713       92.08947       29.80013
H         64.32995       90.87333       30.28164
H         62.73065       93.91867       31.47756
H         63.47912       92.40053       32.08971
H         64.53322       93.74652       31.52194
N         66.10841       93.91401       28.68405
C         67.38842       94.53933       28.99509
C         68.35810       94.47840       27.82730
O         68.56737       93.40885       27.27072
C         67.98441       93.84524       30.24479
C         68.34724       92.36051       30.04884
C         68.76240       91.70219       31.36362
C         69.14152       90.23480       31.12134
N         69.48375       89.56743       32.37463
H         66.12303       92.92867       28.39286
H         67.24463       95.60088       29.29580
H         67.23060       93.93094       31.05875
H         68.89737       94.39202       30.56958
H         69.18724       92.27545       29.32829
H         67.47712       91.79555       29.65988
H         67.90836       91.75066       32.07483
H         69.62885       92.24296       31.80258
H         70.01088       90.18830       30.42744
H         68.28765       89.70012       30.64732
H         68.65708       89.56956       33.01552
H         69.75084       88.57745       32.17033
H         70.28970       90.05151       32.83218
N         69.06536       95.58522       27.46675
C         70.15189       95.54148       26.49390
C         69.67247       95.11726       25.10924
O         70.20355       94.13328       24.61398
C         70.94792       96.86847       26.49483
C         72.24832       96.76818       25.68043
C         73.09181       97.99819       25.86395
O         73.54116       98.33008       27.09060
O         73.39377       98.68904       24.90460
H         68.89079       96.46744       27.97307
H         70.87793       94.77651       26.85658
H         71.22888       97.07668       27.55166
H         70.34037       97.72118       26.12917
H         72.00757       96.62274       24.60500
H         72.84580       95.89800       26.02944
N         68.68825       95.74291       24.39830
C         67.90484       96.87894       24.83660
H         66.83361       96.58690       24.86288
H         68.17607       97.24488       25.83903
H         68.02991       97.71150       24.11435
H         68.45150       95.36200       23.46864
Ca        55.53321       92.96784       14.03773
O         57.49138       91.90274       12.27639
H         57.94596       91.75991       13.14478
H         56.67134       91.34959       12.33290
O         56.25421       94.71686       17.35606
H         55.96142       95.10832       18.21713
H         57.16764       94.38028       17.53564
O         58.67048       94.06804       14.79486
H         59.04694       93.48871       15.50353
H         59.43761       94.61717       14.49537

Ca 1.0



