%chk=apoCaM-CA-Ng.loop3.water3.frame721.chk
%nprocshared=20
%mem=10GB
%nosave
#b3lyp/svp scf=(tight,noincore,xqc) Test 
#IOP(5/87=12) Density=Current Pop=(MK,readradii) iop(6/33=2) iop(6/42=6)

apoCaM-CA-Ng.loop3.water3.frame721 

   0  1 
C         78.18062       98.60137      -28.93839
C         77.89951       98.23246      -30.36402
O         77.77651       99.11788      -31.19901
H         78.24113       99.70454      -28.82083
H         77.37416       98.21193      -28.28358
H         79.15065       98.15867      -28.62688
N         77.81015       96.92136      -30.72137
C         77.60327       96.49753      -32.09995
C         76.23648       96.94575      -32.59082
O         75.23968       96.54281      -32.00602
C         77.75687       94.96418      -32.21338
C         77.86678       94.46525      -33.63052
O         78.00198       93.14522      -33.85767
O         77.86635       95.23831      -34.57487
H         77.94565       96.20649      -29.98890
H         78.40622       96.95709      -32.70385
H         76.91311       94.46241      -31.69285
H         78.69040       94.65972      -31.70579
N         76.11415       97.80643      -33.64376
C         74.81439       98.30772      -34.09018
C         73.91733       97.21445      -34.65937
O         72.72126       97.45486      -34.75182
C         74.96433       99.42981      -35.14162
C         75.64012      100.68712      -34.56310
C         75.83651      101.81250      -35.59513
C         74.52132      102.32963      -36.20390
N         74.76718      103.47050      -37.08580
H         76.97265       98.14610      -34.10326
H         74.29743       98.73649      -33.20160
H         73.94868       99.71538      -35.48677
H         75.54033       99.04687      -36.01326
H         76.64339      100.42526      -34.16603
H         75.02771      101.07273      -33.71872
H         76.50755      101.46057      -36.40874
H         76.33889      102.65608      -35.07283
H         73.83064      102.64263      -35.39000
H         74.03269      101.52488      -36.79380
H         75.41714      103.19778      -37.85852
H         73.86006      103.78393      -37.50115
H         75.17892      104.26255      -36.54065
N         74.41186       96.02126      -35.10338
C         73.56697       94.95819      -35.65390
C         73.69710       93.64103      -34.89564
O         72.95521       92.72098      -35.21236
C         73.84359       94.77181      -37.16362
C         75.24742       94.35683      -37.53024
O         75.53825       94.21247      -38.70635
O         76.19054       94.15948      -36.59105
H         75.42832       95.87992      -35.08124
H         72.49723       95.24989      -35.56871
H         73.62857       95.73627      -37.67300
H         73.13865       94.01203      -37.56685
N         74.58986       93.46869      -33.87804
C         74.68483       92.24827      -33.09437
C         75.13464       91.01011      -33.85114
O         75.17578       89.96747      -33.21342
H         75.19525       94.24581      -33.59211
H         73.69169       92.04829      -32.63713
H         75.41041       92.40873      -32.26702
N         75.48341       91.01367      -35.17490
C         75.86788       89.79767      -35.89183
C         77.27629       89.88833      -36.45305
O         77.88258       90.94871      -36.44704
C         74.87544       89.54064      -37.04616
C         73.47367       89.29096      -36.55276
N         73.19441       88.20781      -35.79047
O         72.57714       90.06119      -36.86248
H         75.46410       91.89135      -35.70823
H         75.86225       88.92459      -35.20474
H         75.18345       88.65369      -37.64009
H         74.88384       90.42398      -37.72451
H         73.93367       87.53621      -35.53728
H         72.23283       88.03009      -35.46486
N         77.86075       88.75765      -36.94079
C         79.17437       88.68835      -37.55972
C         80.28409       89.22287      -36.68325
O         80.34703       88.88429      -35.50977
H         77.33650       87.87142      -36.87199
H         79.15977       89.22620      -38.53167
H         79.39157       87.61959      -37.77551
N         81.24798       90.01953      -37.23066
C         82.37393       90.56323      -36.47496
C         81.93065       91.70232      -35.57105
O         80.75389       92.03353      -35.54814
C         83.47459       91.07039      -37.44509
C         84.12274       89.96111      -38.24004
C         84.77341       88.90171      -37.58010
C         84.12429       89.99398      -39.64395
C         85.40712       87.89392      -38.31027
C         84.76652       88.98698      -40.37308
C         85.40928       87.93518      -39.71075
O         86.02953       86.97611      -40.42728
H         81.20627       90.20273      -38.24547
H         82.81440       89.76698      -35.83814
H         84.30259       91.54356      -36.88177
H         83.04620       91.84965      -38.11334
H         84.80008       88.85512      -36.49912
H         83.64244       90.80497      -40.17524
H         85.90297       87.08678      -37.78528
H         84.77089       89.02828      -41.45480
H         86.49264       86.23795      -40.00549
N         82.85681       92.35467      -34.80307
C         82.59736       93.49037      -33.92359
C         82.10548       94.69754      -34.72209
O         81.08046       94.61183      -35.38157
C         81.65105       93.10739      -32.74817
C         81.46331       94.26908      -31.73200
C         82.15219       91.84043      -32.02677
C         82.73546       94.74583      -31.01866
H         83.83322       92.02693      -34.83065
H         83.57223       93.75746      -33.46376
H         80.64615       92.86974      -33.15620
H         80.74918       93.93721      -30.94807
H         81.01291       95.14008      -32.25183
H         83.17571       91.98193      -31.62223
H         81.46710       91.57456      -31.19394
H         82.17827       90.97622      -32.72301
H         82.47178       95.55980      -30.31123
H         83.20079       93.92748      -30.43297
H         83.47696       95.15475      -31.73201
N         82.77735       95.88358      -34.65950
C         82.34551       97.09358      -35.35685
C         83.49402       97.81202      -36.06110
O         83.25609       98.89776      -36.57481
C         81.73173       98.04812      -34.31862
O         80.65602       97.43665      -33.66633
H         83.57773       95.95971      -34.01445
H         81.55648       96.86745      -36.10839
H         81.38073       98.99231      -34.79413
H         82.49412       98.32274      -33.55826
H         79.94471       97.32259      -34.34988
N         84.76426       97.31122      -36.09380
C         85.91557       98.08434      -36.54827
C         86.61186       97.43014      -37.73207
O         86.75830       96.21570      -37.71537
C         86.90769       98.19197      -35.39109
H         84.95421       96.37062      -35.71915
H         85.62665       99.12321      -36.78049
H         87.77592       98.81144      -35.69514
H         86.42083       98.67849      -34.51949
H         87.26855       97.18610      -35.08550
N         87.19253       98.14386      -38.74722
C         87.18040       99.60126      -38.86065
C         88.25541      100.07568      -39.83694
O         88.22819       99.63695      -40.97875
C         85.81833      100.09467      -39.37670
H         87.73916       97.60793      -39.44032
H         87.37173      100.03923      -37.86537
H         85.61477       99.68669      -40.38970
H         84.97790       99.79554      -38.72415
H         85.82362      101.20501      -39.43658
N         89.21339      101.00248      -39.51892
C         89.33492      101.67134      -38.22348
C         89.86520      100.76274      -37.11793
O         89.89797      101.20564      -35.97747
C         90.21160      102.94517      -38.33047
C         91.69307      102.68661      -38.66079
C         92.44476      103.98595      -38.73684
O         92.51401      104.79218      -37.65970
O         92.99986      104.31604      -39.77274
H         89.83513      101.30137      -40.28521
H         88.32478      102.04107      -37.94088
H         90.15682      103.48985      -37.36126
H         89.77412      103.60700      -39.11067
H         91.78656      102.15654      -39.63111
H         92.15868      102.05776      -37.87284
N         90.32691       99.50360      -37.36549
C         90.87163       98.67019      -36.31378
H         91.74900       99.17038      -35.85001
H         90.10571       98.48158      -35.53390
H         91.20066       97.69565      -36.73220
H         90.32091       99.12214      -38.32141
Ca        78.33433       93.69961      -37.13252
O         78.31188       91.98273      -39.64884
H         78.47503       92.70898      -40.30186
H         77.40885       92.17157      -39.28910
O         78.29814       96.58694      -38.20544
H         77.36447       96.52663      -37.88122
H         78.33472       95.96314      -38.97386
O         81.05345       93.88961      -38.45095
H         81.78594       94.48785      -38.15800
H         80.65892       94.34474      -39.23681

Ca 1.0



