%chk=apoCaM-CA-Ng.loop3.water4.frame140.chk
%nprocshared=20
%mem=10GB
%nosave
#b3lyp/svp scf=(tight,noincore,xqc) Test 
#IOP(5/87=12) Density=Current Pop=(MK,readradii) iop(6/33=2) iop(6/42=6)

apoCaM-CA-Ng.loop3.water4.frame140 

   0  1 
C         51.16636       24.37930        4.42648
C         51.34667       22.89205        4.50438
O         50.85737       22.28488        5.44481
H         50.08480       24.62263        4.39135
H         51.62359       24.85510        5.31896
H         51.65326       24.79917        3.52020
N         52.06407       22.23946        3.54790
C         52.33151       20.80724        3.54028
C         53.09092       20.40191        4.79996
O         52.75110       19.40179        5.41802
C         51.01201       20.01917        3.31528
C         51.17834       18.54422        3.04706
O         52.28224       18.02566        2.98871
O         50.08223       17.78700        2.84936
H         52.47620       22.79183        2.77981
H         52.99807       20.61456        2.66938
H         50.49088       20.44796        2.43234
H         50.34955       20.14334        4.19803
N         54.11760       21.17690        5.26237
C         54.90875       20.83650        6.44106
C         54.56946       21.78617        7.57828
O         55.45458       22.38916        8.17204
C         56.40692       20.91405        6.08453
C         56.79315       20.03299        4.89074
C         58.24187       20.32810        4.47443
C         58.67223       19.57106        3.21048
N         58.74232       18.12633        3.42546
H         54.33521       22.05973        4.77503
H         54.66040       19.81083        6.79238
H         57.02622       20.63613        6.96615
H         56.62836       21.97271        5.81950
H         56.14009       20.27227        4.02376
H         56.65086       18.96648        5.16346
H         58.93978       20.10336        5.30988
H         58.31792       21.41428        4.24313
H         59.68092       19.93712        2.91713
H         57.97140       19.79957        2.37629
H         57.79991       17.73623        3.64868
H         59.08717       17.67277        2.54910
H         59.41155       17.91430        4.20077
N         53.26908       21.97423        7.92417
C         52.85050       22.86306        8.99646
C         53.00349       22.14632       10.32960
O         52.67002       20.97236       10.41517
C         51.41765       23.35210        8.71317
C         50.98010       24.41407        9.67701
O         50.79510       24.11988       10.97015
O         50.77814       25.55123        9.28789
H         52.54063       21.49394        7.37447
H         53.46907       23.79017        8.97496
H         50.69252       22.51405        8.71281
H         51.41882       23.80442        7.69617
N         53.50090       22.80075       11.41682
C         53.75011       22.17227       12.70793
C         52.53749       21.47423       13.28879
O         52.63652       20.29218       13.58706
H         53.72772       23.80305       11.32769
H         54.09178       22.95171       13.42268
H         54.57361       21.43269       12.59677
N         51.35325       22.12797       13.45256
C         50.15150       21.48581       13.97749
C         49.16956       21.10887       12.87405
O         48.10781       20.59172       13.19506
C         49.46233       22.36303       15.04296
C         48.86017       23.65959       14.46536
N         47.52651       23.88052       15.01256
O         49.63796       24.75587       14.82982
H         51.28776       23.09628       13.12804
H         50.42165       20.53116       14.47943
H         50.13694       22.58256       15.89931
H         48.63677       21.74296       15.45826
H         46.88288       23.14051       14.65500
H         47.17710       24.79421       14.65308
N         49.46253       21.28073       11.55455
C         48.55944       20.88124       10.49378
C         47.32431       21.74116       10.47167
O         46.22602       21.21845       10.59333
H         50.37221       21.66291       11.27448
H         48.30557       19.80460       10.60617
H         49.06635       21.00399        9.51306
N         47.44372       23.08119       10.26480
C         46.31337       23.98643       10.10019
C         46.34566       25.10387       11.12223
O         47.25084       25.16456       11.94304
C         46.38090       24.57507        8.67562
C         46.22546       23.50030        7.63398
C         45.00545       22.81524        7.50810
C         47.29039       23.17610        6.77876
C         44.85252       21.82094        6.53983
C         47.13705       22.17658        5.81439
C         45.91576       21.49673        5.69094
O         45.75259       20.53379        4.76226
H         48.38905       23.47590       10.15609
H         45.34801       23.45223       10.23665
H         47.36019       25.08797        8.56150
H         45.58760       25.33022        8.49682
H         44.17059       23.05653        8.15506
H         48.24003       23.69063        6.86220
H         43.90552       21.30367        6.44964
H         47.96700       21.93261        5.16394
H         46.46237       20.28042        4.15537
N         45.35967       26.04556       11.10725
C         45.29824       27.16285       12.03948
C         45.03999       26.60406       13.42556
O         45.84369       26.82728       14.31784
C         44.21249       28.19812       11.59936
C         44.43572       28.72624       10.14854
C         44.13213       29.38343       12.57942
C         45.74127       29.49791        9.92525
H         44.61613       25.95220       10.40175
H         46.26973       27.69523       12.02989
H         43.22209       27.69195       11.60452
H         43.59119       29.39507        9.87532
H         44.41365       27.88566        9.42605
H         43.87300       29.04143       13.59650
H         45.10021       29.92064       12.64682
H         43.34367       30.09515       12.25345
H         46.62242       28.87107       10.15592
H         45.80853       29.80240        8.85943
H         45.77799       30.41735       10.54244
N         43.94239       25.82896       13.65968
C         43.68046       25.17163       14.93704
C         43.57558       26.16109       16.07437
O         44.02119       25.83549       17.16569
C         42.40554       24.31895       14.87737
O         42.54368       23.29428       13.92798
H         43.28567       25.67448       12.88030
H         44.52500       24.48018       15.15950
H         41.51290       24.95120       14.66153
H         42.23056       23.84102       15.86566
H         42.17284       23.63307       13.07260
N         43.06595       27.41251       15.87719
C         43.03098       28.43746       16.91074
C         44.41928       28.61771       17.50320
O         44.59514       28.41608       18.69964
C         41.97251       28.09011       17.96840
H         42.72608       27.67014       14.94083
H         42.71257       29.39969       16.45018
H         41.91010       28.90461       18.72210
H         40.97757       27.99079       17.48431
H         42.21087       27.13969       18.48893
N         45.46832       28.98354       16.71224
C         46.82365       29.10532       17.24550
C         47.76421       29.84773       16.31813
O         47.43855       30.06609       15.15819
C         47.40383       27.71160       17.53593
H         45.27549       29.20228       15.72234
H         46.76423       29.71628       18.17325
H         47.46965       27.12787       16.59036
H         48.42205       27.78757       17.97075
H         46.76514       27.14600       18.24374
N         48.94070       30.34133       16.81423
C         49.89383       31.13454       16.04170
C         49.17115       32.25498       15.31261
O         49.31078       32.39259       14.10411
C         50.68687       30.21911       15.09042
C         51.66593       29.31439       15.85387
C         52.14038       28.23579       14.94139
O         53.27513       28.20778       14.49467
O         51.28788       27.22818       14.72733
H         49.14288       30.20664       17.81756
H         50.61878       31.60932       16.74005
H         51.30145       30.81608       14.38042
H         49.95919       29.62522       14.49868
H         51.17685       28.81189       16.71806
H         52.50767       29.92958       16.23674
N         48.33162       33.07550       15.99857
C         47.57855       34.11798       15.33901
H         46.91412       34.62444       16.06983
H         48.27270       34.86399       14.89927
H         46.94882       33.67747       14.53543
H         48.19472       32.93331       17.01086
Ca        51.11883       25.54690       13.29703
O         50.10086       29.34323       11.40907
H         49.92398       29.60305       10.47074
H         50.37896       30.18257       11.85407
O         48.57466       27.41833        9.19148
H         49.35673       27.57916        8.60699
H         47.79774       27.49766        8.58364
O         48.65296       27.66577       13.19722
H         48.08863       28.47371       13.28612
H         48.41527       27.10919       13.97922
O         52.77072       27.93601       11.26653
H         53.55088       27.69066       11.82408
H         52.84427       28.91752       11.15737

Ca 1.0



