%chk=apoCaM-CA-Ng.loop4.water5.frame537.chk
%nprocshared=20
%mem=10GB
%nosave
#b3lyp/svp scf=(tight,noincore,xqc) Test 
#IOP(5/87=12) Density=Current Pop=(MK,readradii) iop(6/33=2) iop(6/42=6)

apoCaM-CA-Ng.loop4.water5.frame537 

   -3  1 
C         89.04479       -2.15122       70.62763
C         88.39193       -2.75687       71.83384
O         87.95456       -2.02116       72.70406
H         90.09501       -2.50377       70.55566
H         88.49280       -2.45457       69.71352
H         89.04404       -1.04191       70.69333
N         88.28668       -4.11335       71.94095
C         87.69828       -4.83415       73.07254
C         86.18876       -4.63066       73.23211
O         85.62028       -5.25634       74.11606
C         88.45148       -4.51874       74.38514
C         89.92545       -4.78533       74.25824
O         90.80654       -3.78305       74.43273
O         90.33103       -5.90720       73.99952
H         88.68008       -4.68617       71.17813
H         87.82960       -5.92182       72.87334
H         88.05192       -5.14633       75.21058
H         88.30083       -3.46009       74.67041
N         85.46268       -3.81126       72.41597
C         84.00945       -3.66575       72.50652
C         83.37635       -4.97415       72.04301
O         83.72627       -5.40973       70.95437
C         83.51198       -2.49747       71.58442
C         84.17280       -1.14845       71.98328
C         81.97390       -2.37338       71.65523
C         83.82951        0.01668       71.05281
H         85.94362       -3.29684       71.67064
H         83.72687       -3.39872       73.54749
H         83.79820       -2.73211       70.53482
H         85.27664       -1.24154       71.95934
H         83.87280       -0.87760       73.01381
H         81.65622       -2.10795       72.68427
H         81.59376       -1.60359       70.95667
H         81.47833       -3.32083       71.36302
H         84.38735        0.92053       71.37769
H         84.12354       -0.22493       70.00957
H         82.75078        0.26638       71.08773
N         82.40622       -5.65186       72.72327
C         81.78360       -5.23582       73.97473
C         82.62462       -5.64905       75.15852
O         82.94450       -4.81089       75.99018
C         80.39297       -5.89545       74.12268
C         79.47052       -5.50493       73.00108
O         79.00014       -6.35977       72.26756
O         79.15186       -4.21159       72.80445
H         82.01352       -6.48287       72.25178
H         81.60309       -4.13923       73.97722
H         79.92846       -5.57287       75.08004
H         80.49371       -7.00329       74.14588
N         82.98770       -6.95491       75.31201
C         83.66763       -7.45664       76.48817
C         82.72039       -7.45501       77.66250
O         81.69284       -8.11566       77.59141
H         82.75842       -7.63239       74.56928
H         84.59006       -6.86442       76.67482
H         83.96993       -8.51219       76.31634
N         83.00625       -6.74584       78.78719
C         82.14449       -6.73521       79.96875
C         80.78080       -6.06496       79.75721
O         80.02697       -6.02087       80.72026
C         82.91358       -6.15574       81.18796
C         83.49753       -4.78062       81.00490
O         84.83292       -4.61097       81.05306
O         82.78064       -3.81009       80.85624
H         83.90393       -6.23940       78.81884
H         81.92843       -7.78944       80.25358
H         83.76158       -6.84452       81.39328
H         82.26307       -6.16069       82.08988
N         80.35310       -5.56513       78.55393
C         79.03853       -4.95050       78.39517
C         78.93866       -3.60359       79.08562
O         77.85457       -3.04230       79.13565
H         80.94322       -5.62971       77.71601
H         78.26574       -5.64883       78.78374
H         78.82784       -4.77803       77.31708
N         80.05231       -3.00107       79.58506
C         80.11294       -1.69061       80.21045
C         79.70093       -0.61847       79.22398
O         78.95240        0.29051       79.55619
C         79.38714       -1.66180       81.57133
C         79.98270       -2.72235       82.52049
C         79.38474       -2.71719       83.90369
N         79.83073       -3.60286       84.82497
O         78.50683       -1.92157       84.20464
H         80.95546       -3.46412       79.45999
H         81.18835       -1.48556       80.41835
H         78.29953       -1.84390       81.43627
H         79.52642       -0.65648       82.02617
H         81.07486       -2.54389       82.62460
H         79.82906       -3.73241       82.08604
H         80.57093       -4.28022       84.58666
H         79.43865       -3.61322       85.77800
N         80.20921       -0.68270       77.96318
C         80.04485        0.32757       76.92980
C         81.41195        0.79744       76.42674
O         81.44916        1.61771       75.52277
C         79.19733       -0.23562       75.75255
C         79.80646       -1.50179       75.12249
C         77.75789       -0.51457       76.20415
H         80.77192       -1.51209       77.71865
H         79.51604        1.22148       77.32998
H         79.14239        0.54734       74.96366
H         79.81985       -2.34875       75.84053
H         79.20439       -1.81312       74.24339
H         80.84312       -1.30677       74.77987
H         77.14525       -0.85505       75.34245
H         77.73097       -1.29629       76.99125
H         77.29851        0.41414       76.60591
N         82.57531        0.30976       76.95861
C         83.90577        0.64054       76.47183
C         84.64994        1.39147       77.57498
O         84.03724        1.68414       78.59114
C         84.53725       -0.68496       75.99173
C         85.82604       -0.52115       75.23478
N         86.91332       -1.24113       75.57668
O         85.88474        0.24860       74.28758
H         82.55616       -0.34693       77.74861
H         83.84296        1.32038       75.59472
H         83.82044       -1.14964       75.28201
H         84.65601       -1.38954       76.84380
H         86.87057       -1.92235       76.34791
H         87.79690       -1.12534       75.06095
N         85.94611        1.79725       77.42941
C         86.58318        2.71837       78.37071
C         87.07587        3.95342       77.63606
O         87.10750        3.96782       76.41509
C         87.68888        2.05364       79.22320
C         88.72008        1.23856       78.48046
C         88.39994       -0.05700       78.04372
C         90.02482        1.71907       78.28812
C         89.36488       -0.85545       77.42079
C         90.98396        0.92224       77.64944
C         90.65796       -0.36484       77.21501
O         91.59503       -1.12336       76.61240
H         86.47967        1.51798       76.59844
H         85.83239        3.09952       79.09550
H         87.21908        1.37347       79.96683
H         88.18786        2.84590       79.82237
H         87.40761       -0.45692       78.21098
H         90.29894        2.70780       78.63210
H         89.11245       -1.85910       77.10318
H         91.98706        1.29682       77.50055
H         91.40886       -2.02266       76.30795
N         87.41519        5.06701       78.35194
C         87.85284        6.31252       77.73853
C         89.21346        6.66924       78.32093
O         89.26561        7.02649       79.48861
C         86.79469        7.40194       78.01687
C         87.12786        8.75592       77.37793
C         86.04260        9.75403       77.66942
O         85.75401       10.08783       78.94240
O         85.41932       10.26991       76.75542
H         87.33013        5.04053       79.37860
H         87.90875        6.19536       76.63986
H         86.67473        7.52915       79.11575
H         85.82162        7.05142       77.60477
H         87.23031        8.62815       76.27817
H         88.08475        9.14720       77.78337
N         90.38330        6.52828       77.62976
C         90.47847        5.98373       76.27883
C         90.03411        6.99523       75.24089
O         89.81792        8.15514       75.56761
C         91.92410        5.52351       75.98563
C         92.32285        4.35336       76.89763
C         93.73504        3.91690       76.64567
O         94.75386        4.76833       76.86991
O         93.96943        2.78350       76.25784
H         91.25648        6.73359       78.14186
H         89.82861        5.08305       76.20748
H         92.62055        6.38057       76.12058
H         92.00509        5.16941       74.93480
H         91.62970        3.51116       76.69488
H         92.23454        4.63118       77.96873
N         89.86346        6.60420       73.94907
C         89.44876        7.52117       72.91131
H         88.47181        7.97956       73.17453
H         90.21300        8.31672       72.78463
H         89.33835        6.97636       71.94949
H         90.01733        5.61661       73.69360
Ca        93.34114       -3.96680       72.80823
O         93.51133       -1.03871       73.48715
H         93.51502       -0.38909       74.23405
H         94.24088       -0.73721       72.88931
O         93.12423       -6.95997       72.57669
H         92.42518       -7.63579       72.39105
H         93.88795       -7.22499       72.00505
O         94.14990       -3.12736       76.09208
H         94.88151       -3.49109       76.65132
H         94.21551       -2.14616       76.20671
O         93.59059       -6.23245       75.63805
H         93.06792       -6.88337       76.17043
H         94.42293       -6.71507       75.40393
O         96.08816       -4.94192       73.76011
H         96.16049       -5.26494       72.82678
H         96.83947       -5.37868       74.23413

Ca 1.0



