%chk=apoCaM-CA-Ng.loop2.water3.frame1299.chk
%nprocshared=20
%mem=10GB
%nosave
#b3lyp/svp scf=(tight,noincore,xqc) Test 
#IOP(5/87=12) Density=Current Pop=(MK,readradii) iop(6/33=2) iop(6/42=6)

apoCaM-CA-Ng.loop2.water3.frame1299 

   -2  1 
C         58.88536       22.71293       82.73875
C         58.05603       23.93309       83.01474
O         58.52009       24.78870       83.75514
H         59.85425       22.77642       83.28086
H         58.34614       21.81241       83.10098
H         59.09573       22.62367       81.65422
N         56.80325       24.11251       82.50593
C         56.11027       23.19142       81.59612
C         54.91408       22.49880       82.25627
O         54.30704       21.66157       81.60130
C         55.62543       23.93597       80.31602
C         54.58868       24.99771       80.61690
O         53.89238       25.63403       79.66087
O         54.31813       25.27486       81.76946
H         56.31905       24.96493       82.81692
H         56.79972       22.38181       81.27942
H         55.16001       23.18402       79.64080
H         56.48204       24.39073       79.77562
N         54.52430       22.76339       83.53863
C         53.44722       22.02190       84.19137
C         52.03661       22.51112       83.83941
O         51.09450       21.84138       84.23996
C         53.64427       22.08110       85.71195
H         55.07308       23.42802       84.10298
H         53.54355       20.95009       83.90569
H         52.88795       21.45948       86.23524
H         54.65265       21.69111       85.97328
H         53.56753       23.12934       86.07360
N         51.80052       23.68896       83.18221
C         50.46068       24.24578       82.96555
C         50.18111       24.65173       81.52346
O         51.04100       24.51565       80.66685
C         50.24829       25.43821       83.92380
C         51.29287       26.54084       83.93345
O         51.56856       27.34539       82.87642
O         51.84296       26.78932       84.99506
H         52.59767       24.27176       82.92337
H         49.68311       23.49200       83.22199
H         50.21708       25.00755       84.95067
H         49.25370       25.89742       83.75367
N         48.94365       25.13817       81.19242
C         48.57086       25.62875       79.87129
C         49.03375       27.05592       79.62663
O         49.64545       27.65364       80.49982
H         48.20419       25.13774       81.91105
H         47.46117       25.65994       79.80922
H         48.93253       24.93034       79.08681
N         48.74094       27.67283       78.44130
C         49.14189       29.04082       78.10528
C         47.93380       29.89821       77.74258
O         47.23356       29.58199       76.79018
C         50.10399       29.03535       76.90221
C         51.44769       28.43568       77.23269
N         52.57504       29.17560       77.10331
O         51.52519       27.27518       77.60654
H         48.22353       27.13599       77.72825
H         49.67269       29.52065       78.95690
H         50.26130       30.08644       76.57288
H         49.64629       28.48094       76.05392
H         52.53431       30.15402       76.78059
H         53.49659       28.76923       77.31743
N         47.66410       31.03588       78.44441
C         46.59234       31.96347       78.07759
C         46.39780       33.05620       79.11979
O         47.06418       33.02673       80.14498
H         48.26705       31.24717       79.25260
H         45.63300       31.40850       78.00383
H         46.82851       32.41125       77.08822
N         45.47020       34.04815       78.99566
C         44.63815       34.31791       77.82333
C         45.47339       34.91075       76.69710
O         45.25455       34.57068       75.54307
C         43.51033       35.32674       78.17903
C         42.55414       34.74689       79.23253
O         44.06094       36.53391       78.64461
H         45.37078       34.68139       79.80511
H         44.12565       33.39057       77.48177
H         42.92258       35.52139       77.25066
H         43.32222       37.19660       78.67732
H         41.73414       35.46742       79.43664
H         42.10297       33.80174       78.86317
H         43.08161       34.54355       80.18744
N         46.45678       35.81239       76.98419
C         47.31302       36.45806       75.98879
C         48.60818       35.66407       75.83568
O         48.86861       34.81242       76.67469
C         47.55106       37.96584       76.36578
C         48.10835       38.13842       77.80662
C         46.25518       38.76523       76.15057
C         48.60209       39.55131       78.11321
H         46.66583       35.96625       77.97688
H         46.81766       36.39141       74.99729
H         48.30791       38.40405       75.69553
H         48.97654       37.45830       77.94159
H         47.33654       37.88731       78.56318
H         46.41234       39.84716       76.33253
H         45.92306       38.66287       75.09455
H         45.44566       38.39930       76.81571
H         49.00135       39.57687       79.14955
H         49.41763       39.83139       77.41391
H         47.78299       40.29443       78.04809
N         49.44902       35.78689       74.76017
C         49.24874       36.66685       73.60647
C         50.57569       37.21536       73.09240
O         51.62423       36.69933       73.45417
C         48.44306       35.95653       72.49555
C         49.10391       34.71338       71.96631
O         49.32147       33.66014       72.77712
O         49.40689       34.63616       70.78666
H         50.24163       35.12655       74.72069
H         48.64279       37.53558       73.88724
H         48.27149       36.67056       71.66231
H         47.44476       35.66859       72.88676
N         50.59469       38.28134       72.24045
C         51.81783       38.84038       71.66508
C         52.02062       40.29495       72.08377
O         51.02965       40.98805       72.27950
C         51.81691       38.71837       70.11576
C         50.69830       39.45413       69.40234
C         50.97726       40.61911       68.66323
C         49.37673       38.97293       69.43387
C         49.95282       41.29544       67.99217
C         48.35613       39.65111       68.76199
C         48.64294       40.81330       68.04387
H         49.69503       38.72308       72.00548
H         52.69422       38.26074       72.02224
H         51.78892       37.64964       69.81320
H         52.78362       39.11609       69.74791
H         51.98588       41.00962       68.61013
H         49.13296       38.06429       69.96346
H         50.17467       42.19333       67.43004
H         47.34298       39.27115       68.79404
H         47.85133       41.33591       67.52244
N         53.26617       40.86730       72.17540
C         54.53067       40.18714       71.93297
C         55.03709       39.42470       73.14686
O         56.05364       38.75750       73.00296
C         55.47496       41.34160       71.58661
C         54.99219       42.42247       72.53544
C         53.47403       42.28370       72.41454
H         54.48462       39.49943       71.06723
H         56.55921       41.10088       71.63924
H         55.24344       41.68516       70.55240
H         55.29710       42.12199       73.56372
H         55.38014       43.44453       72.34092
H         52.98052       42.65015       73.34054
H         53.09119       42.83987       71.53043
N         54.42806       39.49151       74.36918
C         54.91709       38.76053       75.53034
C         55.37340       39.75065       76.59592
O         54.53174       40.45996       77.12949
C         53.79375       37.84080       76.04424
C         54.24729       36.89740       77.16427
C         53.10668       36.02579       77.61060
O         52.55443       35.27775       76.81867
O         52.68960       36.06341       78.89030
H         53.59910       40.09126       74.49803
H         55.75949       38.10705       75.23232
H         53.44635       37.21872       75.19315
H         52.93588       38.45924       76.39345
H         54.61962       37.48519       78.03020
H         55.07151       36.25019       76.79337
N         56.67950       39.89765       76.96496
C         57.77976       39.18390       76.35224
H         58.74035       39.50614       76.80827
H         57.67005       38.09035       76.50427
H         57.82004       39.41815       75.26630
H         56.91103       40.58412       77.70021
Ca        52.32618       26.82441       80.79190
O         54.68589       27.94627       82.87072
H         54.26967       27.82996       83.76137
H         55.29784       28.71637       82.97963
O         52.11258       29.88137       80.93406
H         52.71859       30.47324       81.44659
H         51.36357       30.46763       80.65984
O         54.84284       28.50939       79.70139
H         54.95610       29.42264       79.33642
H         55.73920       28.09613       79.62379

Ca 1.0



