%chk=apoCaM-CA-Ng.loop1.water2.frame1487.chk
%nprocshared=20
%mem=10GB
%nosave
#b3lyp/svp scf=(tight,noincore,xqc) Test 
#IOP(5/87=12) Density=Current Pop=(MK,readradii) iop(6/33=2) iop(6/42=6)

apoCaM-CA-Ng.loop1.water2.frame1487 

   0  1 
C         16.74725       74.06208       35.90728
C         16.54108       75.03943       34.78861
O         17.51643       75.41347       34.15283
H         17.42745       74.50703       36.66382
H         15.78833       73.80320       36.40315
H         17.20452       73.13240       35.50889
N         15.29370       75.50841       34.49798
C         15.03384       76.48581       33.44822
C         14.50575       77.76362       34.07401
O         13.44152       78.24081       33.70386
C         14.11590       75.89580       32.34832
C         12.74580       75.47702       32.82231
O         11.75118       76.01195       32.35893
O         12.60138       74.48250       33.71833
H         14.50127       75.18247       35.06951
H         15.98195       76.76412       32.93820
H         14.61284       75.01091       31.89557
H         14.00395       76.66086       31.54771
N         15.24446       78.38118       35.04179
C         14.85764       79.62146       35.70080
C         15.69672       80.85076       35.29383
O         15.21455       81.92704       35.62159
C         14.86936       79.43630       37.24005
C         13.66977       78.67441       37.84213
C         13.37783       77.28812       37.25605
C         12.21680       76.62004       38.00893
N         11.82333       75.36562       37.36837
H         16.12388       77.93253       35.32856
H         13.82741       79.90327       35.38803
H         14.83980       80.43343       37.73167
H         15.82489       78.95608       37.54096
H         12.75806       79.29721       37.70878
H         13.86048       78.57635       38.93396
H         14.27914       76.63979       37.30875
H         13.06681       77.41006       36.20267
H         11.33672       77.30167       38.02350
H         12.52338       76.42403       39.06071
H         11.47490       75.55611       36.40020
H         12.63263       74.70514       37.32956
H         11.04985       74.92901       37.92057
N         16.86860       80.89279       34.57467
C         17.74784       79.78039       34.21819
C         18.73870       80.14581       33.11115
O         18.76292       81.27854       32.64842
C         18.50965       79.32927       35.48595
C         19.34052       80.45334       36.03949
O         20.30561       81.01169       35.28892
O         19.13604       80.87697       37.16586
H         17.20812       81.83964       34.34369
H         17.16264       78.97037       33.75456
H         19.17468       78.46947       35.26366
H         17.80014       79.00488       36.27138
N         19.55805       79.18413       32.59532
C         20.41666       79.42438       31.44878
C         21.64748       80.25375       31.74289
O         21.94667       80.55020       32.88909
H         19.48949       78.21963       32.95439
H         19.80971       79.89751       30.64780
H         20.78672       78.45097       31.05939
N         22.41737       80.65232       30.69215
C         23.70531       81.34550       30.78754
C         24.69264       80.69577       29.79774
O         24.25149       79.86361       29.01572
C         23.46298       82.82974       30.43135
C         22.58309       83.49330       31.45473
O         22.99029       83.58173       32.73607
O         21.50550       83.96533       31.13015
H         22.04301       80.46904       29.74754
H         24.11430       81.26630       31.81864
H         22.99480       82.89371       29.42374
H         24.39388       83.41397       30.39509
N         26.02438       80.99812       29.69374
C         26.81399       81.84037       30.57451
C         27.11715       81.13316       31.86776
O         27.71631       80.06754       31.82617
H         26.54512       80.55555       28.91937
H         26.36518       82.83501       30.71509
H         27.80265       82.01732       30.09690
N         26.74684       81.67338       33.05884
C         27.04033       81.05729       34.34898
C         25.75734       80.51167       34.93122
O         24.72309       81.14641       34.78780
C         27.77009       82.05452       35.27510
C         28.06227       81.43951       36.64896
O         27.00972       83.22109       35.43537
H         26.20374       82.55111       33.05121
H         27.73053       80.19378       34.22116
H         28.73726       82.30547       34.77842
H         27.63642       83.93372       35.72862
H         28.65631       80.50708       36.54168
H         28.63597       82.15554       37.27350
H         27.11155       81.20630       37.17318
N         25.76175       79.27814       35.52604
C         24.58140       78.51727       35.92812
C         23.77358       79.25491       36.97992
O         23.22832       80.30074       36.67579
C         23.73263       78.16839       34.66859
C         24.60910       77.43523       33.61465
C         22.49369       77.33181       35.04193
C         23.95221       77.33770       32.23863
H         26.66842       78.80109       35.64668
H         24.93542       77.55771       36.36800
H         23.38657       79.11844       34.22448
H         24.88476       76.42437       33.98613
H         25.54994       77.99918       33.44141
H         21.86455       77.12667       34.15334
H         22.80125       76.36669       35.49800
H         21.85228       77.87782       35.76473
H         23.74955       78.35759       31.85074
H         24.65021       76.83745       31.53461
H         23.01045       76.75737       32.26531
N         23.62857       78.75561       38.24177
C         22.82605       79.42986       39.25677
C         23.70330       79.92054       40.39807
O         23.41362       79.67161       41.55576
C         21.62379       78.54717       39.68834
C         22.01807       77.16837       40.22675
O         20.77620       78.35239       38.58531
H         24.10939       77.87890       38.49027
H         22.38282       80.35877       38.84237
H         21.06646       79.07327       40.50110
H         20.10308       79.07977       38.60703
H         22.68840       77.25258       41.10474
H         21.10220       76.61994       40.53465
H         22.51829       76.56492       39.44083
N         24.79299       80.69037       40.10227
C         25.62241       81.35525       41.10268
C         25.68137       82.83593       40.75624
O         26.12976       83.16553       39.67070
C         27.05153       80.75398       41.14640
C         27.06180       79.30530       41.65886
O         27.69853       80.84705       39.90146
H         25.02945       80.83948       39.11163
H         25.19041       81.23427       42.11934
H         27.64570       81.34392       41.87940
H         27.32244       80.14502       39.30909
H         28.10938       78.93925       41.71927
H         26.61584       79.25416       42.67488
H         26.48965       78.63747       40.98097
N         25.22934       83.78414       41.63446
C         25.26181       85.22191       41.35763
C         24.40213       85.54820       40.15764
O         24.89018       86.05136       39.15213
C         26.71273       85.74244       41.22677
C         27.55122       85.54619       42.50263
C         27.00020       86.34572       43.69587
C         27.90135       86.21829       44.92662
N         27.36049       86.99564       46.04206
H         24.83858       83.48135       42.53705
H         24.78592       85.76235       42.20077
H         26.69009       86.82939       40.99141
H         27.22699       85.23576       40.38413
H         28.57960       85.90703       42.28358
H         27.61082       84.46562       42.75815
H         25.99242       85.97802       43.97662
H         26.92789       87.41857       43.41133
H         28.92112       86.58878       44.68094
H         27.97411       85.14854       45.22391
H         27.99089       86.89457       46.86949
H         27.30326       88.00718       45.78101
H         26.40804       86.64567       46.29701
N         23.07418       85.28320       40.22507
C         22.13149       85.51604       39.14450
C         21.58774       84.15785       38.67723
O         22.64116       83.53306       38.00821
C         21.04580       86.51065       39.58469
C         21.63608       87.91647       39.76839
C         20.57547       88.89606       40.17626
O         19.90907       88.72734       41.33420
O         20.31950       89.85585       39.46663
H         22.70524       84.87112       41.09798
H         22.62259       85.96654       38.25083
H         20.58334       86.18359       40.53734
H         20.26482       86.56464       38.79350
H         22.09202       88.24635       38.80754
H         22.42845       87.90389       40.54650
N         21.15130       83.30257       39.79404
C         19.71005       83.38102       40.01668
H         19.14930       83.07354       39.10860
H         19.44080       82.69675       40.85039
H         19.39862       84.39494       40.31916
H         21.34361       82.30405       39.54671
Ca        21.64534       82.45670       36.31431
O         24.30429       84.21092       35.58579
H         24.49472       85.16168       35.78440
H         24.66679       83.71922       36.36521
O         20.59666       84.92318       34.30758
H         20.99567       85.70624       34.76387
H         19.86345       84.63313       34.90649

Ca 1.0



