%chk=apoCaM-CA-Ng.loop4.water5.frame912.chk
%nprocshared=20
%mem=10GB
%nosave
#b3lyp/svp scf=(tight,noincore,xqc) Test 
#IOP(5/87=12) Density=Current Pop=(MK,readradii) iop(6/33=2) iop(6/42=6)

apoCaM-CA-Ng.loop4.water5.frame912 

   -3  1 
C         12.59556       -2.22813       48.73558
C         13.09783       -3.42056       49.48946
O         13.04455       -4.52413       48.96578
H         11.76937       -1.75215       49.30298
H         13.42125       -1.49647       48.60634
H         12.22203       -2.52564       47.73269
N         13.63025       -3.25837       50.73476
C         14.17551       -4.34173       51.54820
C         15.28157       -5.06442       50.79297
O         15.35476       -6.28146       50.87040
C         13.05447       -5.33112       51.96175
C         11.90987       -4.64270       52.64716
O         10.79016       -4.68729       52.16166
O         12.10896       -3.98201       53.80259
H         13.67926       -2.30438       51.12515
H         14.61077       -3.89293       52.46892
H         13.46494       -6.10482       52.64606
H         12.66788       -5.85445       51.05927
N         16.09438       -4.39208       49.92629
C         16.94461       -5.10864       48.97981
C         18.02958       -5.90046       49.68498
O         18.51777       -5.44065       50.70765
C         17.46718       -4.20701       47.80899
C         18.42611       -3.04428       48.18592
C         16.25903       -3.62890       47.04175
C         19.85607       -3.47003       48.52909
H         16.00606       -3.36889       49.85358
H         16.27653       -5.83148       48.47535
H         18.00017       -4.85291       47.07749
H         17.99516       -2.41647       48.99373
H         18.54379       -2.39846       47.28756
H         15.58769       -4.44585       46.70022
H         15.67142       -2.92429       47.66505
H         16.60153       -3.08208       46.13773
H         19.92702       -4.05394       49.45656
H         20.28998       -4.06032       47.69343
H         20.48031       -2.56299       48.67337
N         18.48482       -7.10275       49.22441
C         17.92109       -7.84068       48.09190
C         16.53168       -8.37174       48.43231
O         15.64379       -8.29067       47.59491
C         18.85285       -8.99290       47.67754
C         20.19100       -8.45983       47.23107
O         21.31608       -8.83339       47.86878
O         20.26236       -7.68337       46.29041
H         19.27491       -7.53105       49.73384
H         17.85165       -7.18091       47.19960
H         18.40214       -9.54411       46.82328
H         18.98859       -9.70129       48.52277
N         16.24849       -8.82254       49.68769
C         14.90624       -9.16373       50.13157
C         14.41677      -10.48646       49.60679
O         15.05439      -11.49323       49.88091
H         16.99338       -8.81308       50.40085
H         14.20370       -8.33851       49.88354
H         14.91727       -9.25751       51.23984
N         13.23882      -10.56951       48.92009
C         12.60750      -11.84128       48.57218
C         12.49074      -12.08258       47.07154
O         12.05849      -13.16796       46.70724
C         11.25196      -11.95792       49.31182
C         10.29009      -10.82957       49.03907
O          9.88831      -10.03300       50.04840
O          9.85282      -10.63763       47.91880
H         12.73199       -9.69834       48.69907
H         13.23072      -12.68575       48.93955
H         11.46403      -11.95972       50.40372
H         10.76412      -12.92570       49.06593
N         12.90472      -11.17567       46.13782
C         12.94360      -11.47837       44.70929
C         11.59535      -11.70382       44.04152
O         11.59043      -11.99214       42.85398
H         13.28465      -10.26705       46.44012
H         13.57443      -12.38090       44.56038
H         13.43309      -10.63238       44.17887
N         10.41835      -11.55489       44.71019
C          9.09192      -11.66848       44.11275
C          8.92265      -10.64046       43.01106
O          8.51236      -10.96838       41.90529
C          8.75267      -13.10357       43.65629
C          8.83556      -14.11156       44.81413
C          8.33548      -15.48654       44.43559
N          8.33940      -16.47821       45.35524
O          7.91311      -15.71209       43.31008
H         10.44170      -11.28090       45.69563
H          8.35251      -11.39913       44.90127
H          9.42115      -13.42838       42.82996
H          7.70599      -13.09200       43.27713
H          8.21291      -13.74844       45.66010
H          9.88996      -14.19101       45.15543
H          8.68898      -16.30798       46.30957
H          7.98896      -17.41735       45.11444
N          9.23511       -9.34632       43.27928
C          9.05503       -8.24189       42.34932
C          8.11095       -7.22403       42.97126
O          7.13824       -6.87159       42.32034
C         10.41595       -7.64427       41.88345
C         11.32712       -7.15440       43.01783
C         11.17561       -8.67145       41.02560
H          9.62159       -9.13729       44.21087
H          8.56288       -8.59045       41.41171
H         10.19530       -6.77655       41.22203
H         10.84199       -6.34488       43.59398
H         11.60584       -7.98808       43.69650
H         12.26273       -6.73314       42.59062
H         11.43876       -9.57135       41.61865
H         10.55411       -8.98598       40.15901
H         12.11000       -8.22575       40.62229
N          8.28832       -6.76626       44.24980
C          7.36182       -5.84236       44.90129
C          6.62299       -6.51909       46.04798
O          6.95212       -7.63430       46.42117
C          8.08431       -4.55998       45.37328
C          9.17145       -4.80499       46.40114
N          9.05828       -4.31905       47.65889
O         10.17345       -5.43211       46.09269
H          9.07401       -7.12481       44.80354
H          6.57821       -5.53450       44.17666
H          7.32213       -3.87412       45.80143
H          8.53259       -4.04290       44.49803
H          8.22606       -3.78671       47.95011
H          9.80623       -4.48410       48.34945
N          5.53836       -5.89338       46.59714
C          4.70113       -6.50439       47.63533
C          3.34263       -5.78215       47.72142
O          3.11687       -4.83924       46.97906
C          5.45269       -6.46417       48.99597
C          4.99577       -7.53176       49.96658
C          5.30434       -8.87758       49.69882
C          4.29493       -7.21344       51.14360
C          4.92140       -9.88602       50.58643
C          3.89354       -8.22919       52.02182
C          4.20932       -9.56592       51.74976
O          3.82876      -10.53122       52.61175
H          5.27187       -4.98904       46.18750
H          4.50227       -7.55451       47.32766
H          5.36036       -5.44036       49.42139
H          6.53973       -6.64593       48.85417
H          5.85965       -9.14432       48.80801
H          4.04262       -6.18557       51.37190
H          5.18050      -10.91504       50.36888
H          3.33916       -7.97826       52.91754
H          4.03691      -11.46535       52.46352
N          2.38468       -6.16906       48.61434
C          1.09593       -5.49623       48.75153
C          0.98851       -4.89987       50.15844
O          0.22553       -5.42171       50.95953
C         -0.02857       -6.51957       48.45586
C         -1.42915       -5.86666       48.43203
C         -2.53969       -6.85184       48.18072
O         -3.81124       -6.41112       48.13372
O         -2.31266       -8.04269       48.03193
H          2.56012       -6.97412       49.22536
H          0.97408       -4.68967       48.00313
H          0.00340       -7.33411       49.21341
H          0.15396       -6.97049       47.45535
H         -1.45509       -5.09374       47.63392
H         -1.64741       -5.37056       49.39875
N          1.71426       -3.82098       50.58567
C          2.64941       -3.02375       49.78823
C          1.93491       -2.29205       48.65426
O          0.71117       -2.26898       48.62236
C          3.38413       -2.05104       50.75205
C          4.43293       -1.12015       50.12782
C          5.22598       -0.43511       51.20296
O          5.21218        0.90411       51.32640
O          5.90624       -1.09779       51.96997
H          1.57991       -3.55073       51.57416
H          3.40987       -3.70377       49.35895
H          3.89600       -2.69645       51.50071
H          2.64247       -1.41971       51.29182
H          3.92569       -0.35344       49.50314
H          5.14399       -1.70075       49.50367
N          2.64863       -1.69516       47.65804
C          2.01626       -1.01400       46.54951
H          1.38719       -0.17817       46.92172
H          2.79157       -0.59878       45.86977
H          1.38939       -1.72827       45.97481
H          3.67716       -1.73998       47.66450
Ca         6.47787        1.78768       52.97513
O          5.76881        4.61949       52.53198
H          4.93365        4.65471       52.00160
H          6.46712        4.36492       51.87734
O          8.74227       -0.30221       53.72324
H          9.56646       -0.35761       54.26909
H          8.77327       -1.10393       53.14295
O          4.56201        2.33659       55.28149
H          4.46797        2.27963       56.26534
H          3.63228        2.36750       54.94242
O          7.94688        2.49958       55.57068
H          7.71286        3.45922       55.49996
H          8.33153        2.40243       56.47763
O          5.63796       -0.75900       54.96135
H          5.90416       -1.16448       55.82438
H          4.69113       -1.02370       54.84264

Ca 1.0



