%chk=apoCaM-CA-Ng.loop2.water3.frame580.chk
%nprocshared=20
%mem=10GB
%nosave
#b3lyp/svp scf=(tight,noincore,xqc) Test 
#IOP(5/87=12) Density=Current Pop=(MK,readradii) iop(6/33=2) iop(6/42=6)

apoCaM-CA-Ng.loop2.water3.frame580 

   -2  1 
C         58.17653        8.76329        0.72161
C         56.93310        9.39208        1.28747
O         56.71423        9.29629        2.48627
H         59.07393        9.20096        1.20637
H         58.15981        7.66868        0.90765
H         58.25498        8.92843       -0.37430
N         56.05790       10.04335        0.47211
C         54.82168       10.65751        0.94730
C         55.12054       11.80813        1.89309
O         55.84570       12.71542        1.50718
C         53.99953       11.16817       -0.25354
C         52.67138       11.72468        0.17995
O         51.79052       10.94029        0.83070
O         52.38359       12.88620       -0.05914
H         56.27103       10.08047       -0.53737
H         54.21219        9.87924        1.45884
H         53.80590       10.32277       -0.94891
H         54.57781       11.94355       -0.80459
N         54.55781       11.85842        3.13740
C         54.80488       12.96830        4.05645
C         56.26097       12.99458        4.47320
O         56.87452       11.93567        4.45051
C         53.88453       12.88747        5.27598
H         53.91049       11.10616        3.41941
H         54.55636       13.88772        3.52754
H         54.07115       11.95560        5.84942
H         54.03895       13.76295        5.94022
H         52.82427       12.89587        4.94026
N         56.94190       14.12201        4.83921
C         56.43555       15.49429        4.96778
C         55.77275       16.04368        3.71077
O         56.32766       15.92088        2.62856
C         57.58074       16.44595        5.41092
C         58.72966       16.57060        4.43421
O         59.46969       15.49953        4.08956
O         59.03078       17.66546        3.99007
H         57.93169       13.96652        5.07976
H         55.68802       15.51716        5.78924
H         57.99273       16.08619        6.37741
H         57.15101       17.45772        5.58632
N         54.59176       16.73031        3.80688
C         53.92740       17.33639        2.66074
C         53.27144       16.30526        1.76152
O         53.24104       15.13963        2.11427
H         54.18276       16.89597        4.73909
H         54.67595       17.93702        2.09888
H         53.12752       18.02341        3.01437
N         52.72228       16.62063        0.55691
C         52.70083       17.95211       -0.02981
C         53.73637       18.05616       -1.14993
O         53.87218       19.13213       -1.71569
C         51.27834       18.23809       -0.57323
C         50.17626       18.15446        0.46317
N         48.88450       18.29258        0.08141
O         50.43553       17.95172        1.64050
H         52.34138       15.84625       -0.01116
H         52.96170       18.72541        0.72240
H         51.05374       17.48722       -1.36291
H         51.24349       19.24792       -1.03587
H         48.64180       18.45112       -0.90774
H         48.12187       18.22629        0.77244
N         54.50094       16.98557       -1.53289
C         55.46404       17.03234       -2.62279
C         56.76112       17.76055       -2.30829
O         57.59781       17.83033       -3.19662
H         54.36089       16.06587       -1.09252
H         54.97498       17.46644       -3.52088
H         55.75632       15.98906       -2.87330
N         57.03065       18.29196       -1.08236
C         58.30074       18.94497       -0.75357
C         59.49928       18.00349       -0.90228
O         59.49651       16.91437       -0.34855
C         58.26924       19.54036        0.68400
C         57.41320       20.80860        0.72983
O         57.76215       18.62785        1.62423
H         56.31269       18.22367       -0.34748
H         58.46445       19.80128       -1.44453
H         59.29495       19.85972        0.98188
H         58.32360       17.81517        1.58919
H         57.82903       21.57192        0.03584
H         56.36228       20.59568        0.44501
H         57.43069       21.23713        1.75470
N         60.59944       18.42684       -1.59490
C         61.85522       17.68869       -1.72479
C         62.93770       18.44268       -0.96220
O         63.13435       19.62648       -1.19919
C         62.21847       17.50372       -3.23049
C         63.67995       16.99972       -3.40518
C         61.21026       16.53151       -3.87322
C         64.11655       16.80907       -4.85792
H         60.57545       19.36798       -2.01644
H         61.77466       16.67575       -1.27598
H         62.14733       18.48993       -3.74042
H         63.82821       16.05058       -2.85747
H         64.37227       17.75464       -2.97580
H         60.17192       16.89785       -3.74256
H         61.38301       16.43020       -4.96292
H         61.29185       15.52636       -3.40528
H         63.54872       15.99232       -5.34669
H         63.98399       17.75294       -5.42774
H         65.19145       16.52880       -4.88210
N         63.70170       17.78008       -0.04494
C         64.74301       18.38002        0.76838
C         66.12607       17.81554        0.43486
O         67.07787       18.23322        1.08102
C         64.44225       18.13175        2.26071
C         63.11627       18.67873        2.72225
O         63.09148       19.70741        3.37937
O         61.98119       17.95110        2.61071
H         63.55442       16.77879        0.08898
H         64.78638       19.47859        0.59732
H         65.24196       18.63130        2.85208
H         64.48550       17.04851        2.50551
N         66.33693       16.92067       -0.58105
C         67.66886       16.47464       -0.98020
C         67.68534       14.95621       -1.18770
O         67.91970       14.51971       -2.30737
C         68.05118       17.26769       -2.25431
C         69.48320       17.15696       -2.74980
C         70.47541       16.36201       -2.13533
C         69.83489       17.91788       -3.87928
C         71.77749       16.33476       -2.64860
C         71.13676       17.88853       -4.38538
C         72.10769       17.09704       -3.77111
H         65.54927       16.62287       -1.17115
H         68.42107       16.74828       -0.20950
H         67.89377       18.34555       -2.02593
H         67.35340       16.99140       -3.07552
H         70.26451       15.76377       -1.26126
H         69.09628       18.54274       -4.36684
H         72.53423       15.72410       -2.17295
H         71.39249       18.48296       -5.25317
H         73.11629       17.07697       -4.16381
N         67.47046       14.07073       -0.16239
C         67.55393       12.61978       -0.30612
C         66.62419       11.99249       -1.32890
O         66.80267       10.81778       -1.62189
C         67.14773       12.10023        1.07761
C         67.67308       13.18424        1.98549
C         67.28549       14.45147        1.22209
H         68.61235       12.38423       -0.56031
H         66.03546       12.13590        1.16948
H         67.48480       11.06579        1.30343
H         67.30838       13.14522        3.03365
H         68.78355       13.09353        1.98663
H         66.22002       14.73089        1.37232
H         67.96109       15.26883        1.55147
N         65.56327       12.67101       -1.85032
C         64.64594       12.05727       -2.79693
C         65.37152       11.88935       -4.11590
O         65.51142       10.76846       -4.58513
C         63.34040       12.86438       -3.02245
C         62.32726       12.90822       -1.84643
C         62.57458       13.90438       -0.74306
O         61.60051       14.14095        0.15880
O         63.56759       14.60090       -0.72954
H         65.40898       13.63577       -1.55677
H         64.32539       11.06296       -2.41028
H         62.80301       12.31639       -3.82889
H         63.53679       13.88271       -3.41088
H         62.17379       11.89197       -1.42551
H         61.36282       13.23427       -2.29191
N         65.87541       12.97704       -4.76356
C         66.59108       12.86958       -6.01515
H         67.49139       12.23265       -5.88293
H         65.93286       12.42909       -6.79339
H         66.91635       13.87744       -6.35140
H         65.75718       13.91486       -4.35056
Ca        61.68477       16.02499        1.43474
O         58.78849       14.20395        1.16090
H         58.49680       15.07079        1.53777
H         58.43742       13.52751        1.79237
O         62.68023       15.38645        4.31921
H         63.30909       14.77071        3.86551
H         63.23387       16.16886        4.56685
O         61.10580       12.97945        2.92933
H         61.66941       12.43335        2.32560
H         60.38755       12.36464        3.22295

Ca 1.0



