%chk=apoCaM-CA-Ng.loop3.water3.frame899.chk
%nprocshared=20
%mem=10GB
%nosave
#b3lyp/svp scf=(tight,noincore,xqc) Test 
#IOP(5/87=12) Density=Current Pop=(MK,readradii) iop(6/33=2) iop(6/42=6)

apoCaM-CA-Ng.loop3.water3.frame899 

   0  1 
C         -2.94282        1.27551       25.95838
C         -3.96662        0.41530       25.28419
O         -4.53396       -0.45124       25.93286
H         -1.96938        1.19831       25.43348
H         -3.29085        2.33063       25.93630
H         -2.81285        0.97238       27.01947
N         -4.26523        0.61698       23.97056
C         -5.34479       -0.07179       23.27743
C         -4.77754       -0.94277       22.16462
O         -4.06546       -0.42897       21.31242
C         -6.31534        0.99831       22.74652
C         -7.62736        0.45616       22.27475
O         -8.43852        1.21934       21.77587
O         -7.94602       -0.84388       22.40338
H         -3.73293        1.33119       23.44852
H         -5.90156       -0.70966       23.98815
H         -5.82091        1.55880       21.92374
H         -6.55211        1.72413       23.54885
N         -5.03169       -2.28624       22.13034
C         -4.41897       -3.19081       21.15262
C         -4.80950       -2.86839       19.71051
O         -4.12757       -3.34062       18.81173
C         -4.77642       -4.67075       21.44399
C         -4.29541       -5.16854       22.82427
C         -4.78176       -6.59424       23.14964
C         -4.19086       -7.67896       22.23362
N         -4.70271       -9.00119       22.59703
H         -5.64916       -2.67879       22.85405
H         -3.31578       -3.07218       21.23933
H         -4.31393       -5.30694       20.66100
H         -5.87875       -4.78544       21.37866
H         -4.70470       -4.51309       23.61810
H         -3.18661       -5.11972       22.88381
H         -5.89246       -6.61896       23.09565
H         -4.48558       -6.82964       24.19571
H         -3.08225       -7.67410       22.32924
H         -4.45434       -7.48114       21.17394
H         -4.26769       -9.72094       21.97555
H         -4.46583       -9.22456       23.59092
H         -5.74060       -9.02985       22.46789
N         -5.91157       -2.12365       19.40951
C         -6.31799       -1.77459       18.04732
C         -6.43093       -0.26024       17.90788
O         -5.80021        0.28116       17.00978
C         -7.55637       -2.60119       17.60444
C         -8.66895       -2.70006       18.60482
O         -9.45141       -1.65685       18.89857
O         -8.84844       -3.75203       19.19699
H         -6.51719       -1.81405       20.18189
H         -5.53961       -2.08089       17.31147
H         -7.17835       -3.64053       17.47589
H         -7.93524       -2.27010       16.61411
N         -7.13633        0.49877       18.79535
C         -7.17860        1.95775       18.75180
C         -8.58607        2.51805       18.72107
O         -8.71653        3.73377       18.71607
H         -7.61172        0.03282       19.57688
H         -6.62633        2.35651       17.87319
H         -6.67983        2.34789       19.66427
N         -9.68392        1.71020       18.69395
C        -11.05612        2.19517       18.64600
C        -11.87942        1.67496       19.80987
O        -11.43658        0.82197       20.56489
C        -11.68118        1.72867       17.31648
C        -11.14569        2.54922       16.17336
N        -10.32711        2.01316       15.24069
O        -11.45913        3.72792       16.09455
H         -9.55877        0.69507       18.67370
H        -11.09051        3.30495       18.71593
H        -12.78623        1.83905       17.31034
H        -11.46070        0.64386       17.18358
H        -10.02483        1.03064       15.29967
H         -9.97343        2.59758       14.46826
N        -13.11852        2.20412       20.00850
C        -14.06028        1.78435       21.02949
C        -13.50820        1.86004       22.43526
O        -12.94284        2.87467       22.81772
H        -13.42830        2.96211       19.38063
H        -14.40976        0.75312       20.80732
H        -14.94575        2.45344       20.97123
N        -13.72152        0.81744       23.28551
C        -13.28400        0.78485       24.68058
C        -11.78285        0.57081       24.78408
O        -11.11260        0.49198       23.76680
C        -14.03884       -0.35209       25.41950
C        -15.51617       -0.05619       25.52537
C        -15.95587        1.05363       26.26945
C        -16.46596       -0.88406       24.90549
C        -17.31856        1.33277       26.38796
C        -17.83153       -0.60125       25.02429
C        -18.26239        0.50558       25.76494
O        -19.58141        0.76269       25.87390
H        -14.28096        0.02392       22.93496
H        -13.53147        1.74694       25.17787
H        -13.67643       -0.48103       26.45886
H        -13.85609       -1.31153       24.88871
H        -15.24381        1.70120       26.76569
H        -16.15202       -1.74600       24.33038
H        -17.63809        2.19043       26.96683
H        -18.55624       -1.24469       24.54197
H        -19.91767        1.51578       26.38095
N        -11.20185        0.45364       26.02071
C         -9.79030        0.18187       26.28292
C         -9.38236       -1.17549       25.72220
O         -9.61071       -1.43725       24.54970
C         -8.85784        1.32634       25.79776
C         -7.38201        1.09003       26.23129
C         -9.34553        2.69940       26.29058
C         -7.11747        1.04553       27.74416
H        -11.80044        0.55439       26.85192
H         -9.68100        0.14342       27.38709
H         -8.87768        1.35762       24.68815
H         -6.75025        1.90184       25.81432
H         -7.03543        0.13307       25.79748
H        -10.35699        2.91992       25.89062
H         -9.39674        2.73735       27.39800
H         -8.66207        3.49787       25.93050
H         -6.03393        0.88009       27.92009
H         -7.39773        2.00052       28.23085
H         -7.65527        0.21595       28.24005
N         -8.71210       -2.07526       26.49314
C         -8.29241       -3.38456       26.00698
C         -8.68236       -4.52134       26.94183
O         -8.42046       -5.66267       26.59631
C         -6.77481       -3.37921       25.79089
O         -6.10920       -3.12474       26.99723
H         -8.42508       -1.78658       27.44001
H         -8.76398       -3.59722       25.02482
H         -6.54070       -2.58177       25.05762
H         -6.44751       -4.35808       25.37663
H         -5.15128       -3.01567       26.76264
N         -9.26848       -4.29656       28.15759
C         -9.55381       -5.37888       29.09102
C        -10.64652       -6.29615       28.57084
O        -11.38499       -5.88152       27.68718
C         -9.99939       -4.78492       30.42771
H         -9.46940       -3.33725       28.46144
H         -8.61011       -5.94648       29.23996
H        -10.25992       -5.58403       31.13382
H         -9.18360       -4.16358       30.85654
H        -10.90155       -4.15166       30.29141
N        -10.83710       -7.56793       29.03597
C         -9.92489       -8.28890       29.92429
C        -10.68146       -9.33144       30.73794
O        -11.46197      -10.06317       30.14444
C         -8.89096       -9.01556       29.06073
H        -11.57331       -8.11875       28.56643
H         -9.35511       -7.60621       30.57698
H         -8.17918       -9.57287       29.70736
H         -9.38489       -9.72967       28.36735
H         -8.31321       -8.28227       28.45940
N        -10.47642       -9.55903       32.06934
C         -9.51278       -8.86586       32.91914
C         -9.97061       -7.45626       33.20941
O         -9.19138       -6.53312       33.02106
C         -9.29800       -9.62883       34.24587
C         -8.68332      -11.01936       33.99746
C         -8.39542      -11.72815       35.28805
O         -7.25316      -12.05897       35.56449
O         -9.39717      -12.01868       36.13957
H        -11.01050      -10.33689       32.48887
H         -8.51547       -8.84385       32.42343
H        -10.25639       -9.72407       34.80227
H         -8.58455       -9.04781       34.87323
H         -7.73530      -10.90247       33.42610
H         -9.37160      -11.65144       33.39912
N        -11.22703       -7.21482       33.67552
C        -11.71278       -5.87537       33.92914
H        -12.76605       -5.91472       34.27905
H        -11.09188       -5.38277       34.70596
H        -11.68219       -5.27520       32.99560
H        -11.87058       -8.00490       33.83312
Ca        -9.65814       -1.42717       21.10157
O        -11.55077       -3.18536       23.33265
H        -11.33258       -3.82878       24.05272
H        -12.40845       -2.77952       23.61357
O        -12.65460       -2.11912       20.71482
H        -13.61111       -2.06146       20.96357
H        -12.65849       -2.31282       19.74392
O         -8.42974       -4.00954       22.49299
H         -8.17075       -4.31132       21.58859
H         -9.04414       -4.71420       22.81805

Ca 1.0



