%chk=apoCaM-CA-Ng.loop2.water4.frame739.chk
%nprocshared=20
%mem=10GB
%nosave
#b3lyp/svp scf=(tight,noincore,xqc) Test 
#IOP(5/87=12) Density=Current Pop=(MK,readradii) iop(6/33=2) iop(6/42=6)

apoCaM-CA-Ng.loop2.water4.frame739 

   -2  1 
C         -3.97377       30.24779      -12.77036
C         -3.65762       30.32801      -14.23476
O         -4.47895       29.93370      -15.05000
H         -4.98930       29.82947      -12.60542
H         -3.22887       29.60016      -12.26320
H         -3.93315       31.26509      -12.32473
N         -2.47647       30.87017      -14.63701
C         -2.09118       31.04597      -16.02945
C         -2.12689       32.53276      -16.31189
O         -1.09595       33.16734      -16.48922
C         -0.71733       30.38881      -16.27079
C         -0.29890       30.48353      -17.71358
O         -0.98531       29.97884      -18.58845
O          0.84115       31.11797      -18.04638
H         -1.83164       31.22762      -13.91396
H         -2.81675       30.55620      -16.71745
H         -0.77626       29.31204      -16.00015
H          0.04964       30.86712      -15.62341
N         -3.34107       33.14584      -16.35009
C         -3.54100       34.57903      -16.50709
C         -4.45518       35.07761      -15.39702
O         -5.25383       34.28929      -14.90738
C         -4.21197       34.83757      -17.85794
H         -4.18093       32.55071      -16.26727
H         -2.56896       35.11227      -16.49457
H         -5.18931       34.31027      -17.91493
H         -4.38686       35.92162      -18.01398
H         -3.56150       34.46639      -18.67791
N         -4.50292       36.37292      -14.97748
C         -3.61195       37.45367      -15.40020
C         -2.18864       37.24749      -14.89252
O         -1.91529       36.28449      -14.18851
C         -4.17032       38.81186      -14.88730
C         -4.36669       38.81823      -13.39279
O         -5.49265       38.92853      -12.93605
O         -3.33000       38.62097      -12.55535
H         -5.24793       36.59374      -14.29865
H         -3.59269       37.50766      -16.50859
H         -5.15592       38.97838      -15.37636
H         -3.51896       39.65959      -15.18096
N         -1.23225       38.16925      -15.19254
C          0.12647       38.12424      -14.68562
C          0.94786       36.99384      -15.26855
O          0.41880       36.19966      -16.03313
H         -1.48611       38.98237      -15.77232
H          0.11044       38.07099      -13.57510
H          0.61878       39.07137      -14.98383
N          2.28091       36.86188      -15.00230
C          3.04857       37.74866      -14.13256
C          3.72448       36.92497      -13.05484
O          4.56778       36.09888      -13.37976
C          4.09191       38.51550      -14.97022
C          3.42303       39.42186      -15.97700
N          3.57137       39.21677      -17.30661
O          2.73679       40.35373      -15.58433
H          2.79281       36.09633      -15.46984
H          2.40025       38.49972      -13.63913
H          4.74821       37.78340      -15.49022
H          4.73237       39.14248      -14.31211
H          4.13851       38.43434      -17.66305
H          3.10451       39.83742      -17.98497
N          3.38945       37.08364      -11.74184
C          4.05471       36.31015      -10.70032
C          3.53934       36.47909       -9.27484
O          4.19352       35.92877       -8.39969
H          2.66380       37.77170      -11.51625
H          5.12939       36.60016      -10.70983
H          3.98646       35.22719      -10.94061
N          2.41345       37.18178       -8.93367
C          1.98449       37.37444       -7.54695
C          0.59720       36.79140       -7.29250
O         -0.04826       36.31058       -8.21372
C          2.00852       38.88683       -7.21147
C          3.42438       39.46357       -7.33952
O          1.13388       39.57459       -8.07042
H          1.83226       37.62281       -9.65392
H          2.67561       36.85444       -6.84768
H          1.67991       39.02405       -6.15647
H          0.97073       40.46633       -7.66613
H          4.11681       38.93263       -6.65204
H          3.80261       39.36761       -8.37932
H          3.41908       40.54024       -7.06759
N          0.09617       36.79038       -6.02251
C         -1.22528       36.29979       -5.63553
C         -1.96431       37.43987       -4.95420
O         -1.48693       37.92419       -3.93569
C         -1.06195       35.07185       -4.68815
C         -2.40512       34.66194       -4.02403
C         -0.44966       33.90008       -5.48253
C         -2.26627       33.52840       -3.00588
H          0.69621       37.15568       -5.26639
H         -1.81075       35.97773       -6.52652
H         -0.36266       35.35629       -3.86998
H         -3.14491       34.37279       -4.79228
H         -2.81476       35.52802       -3.46232
H         -1.14337       33.57861       -6.29044
H          0.51545       34.19538       -5.94364
H         -0.23544       33.03174       -4.82952
H         -1.53254       33.80687       -2.21920
H         -3.24938       33.34596       -2.52293
H         -1.95096       32.58246       -3.48882
N         -3.12628       37.93325       -5.47570
C         -3.83931       39.07132       -4.90074
C         -5.30649       38.78685       -4.55865
O         -5.94333       39.69738       -4.04991
C         -3.67669       40.28903       -5.83561
C         -4.18180       40.05216       -7.23195
O         -3.40928       40.10951       -8.17587
O         -5.48331       39.79012       -7.45296
H         -3.48260       37.52854       -6.35419
H         -3.36952       39.37046       -3.93786
H         -2.59036       40.52946       -5.88810
H         -4.18997       41.17496       -5.40422
N         -5.91590       37.57797       -4.77590
C         -7.30811       37.31722       -4.38173
C         -7.74241       35.91924       -4.83084
O         -7.12417       34.96774       -4.37472
C         -7.46160       37.36157       -2.83724
C         -8.86506       36.97774       -2.41772
C         -9.93657       37.87126       -2.57721
C         -9.11352       35.69309       -1.89975
C        -11.23343       37.48512       -2.21837
C        -10.41149       35.30602       -1.56028
C        -11.47086       36.20207       -1.71600
H         -5.38477       36.82361       -5.23319
H         -7.94871       38.09264       -4.84452
H         -7.19865       38.34464       -2.39615
H         -6.73952       36.62591       -2.41829
H         -9.76705       38.86389       -2.97480
H         -8.30645       34.98000       -1.78506
H        -12.05686       38.17729       -2.33568
H        -10.59519       34.30856       -1.18176
H        -12.47550       35.89981       -1.44995
N         -8.81713       35.69082       -5.66082
C         -9.31068       34.36154       -6.02439
C         -8.31628       33.41296       -6.67761
O         -8.70411       32.28712       -6.96187
C        -10.45269       34.65265       -7.00267
C        -10.99674       35.94852       -6.45796
C         -9.71382       36.71868       -6.15246
H         -9.69602       33.89209       -5.09079
H        -10.02926       34.88212       -8.00821
H        -11.19185       33.82854       -7.10473
H        -11.71409       36.48152       -7.11669
H        -11.50620       35.71223       -5.49380
H         -9.26758       37.17804       -7.06130
H         -9.97593       37.48830       -5.39776
N         -7.02275       33.76798       -6.92310
C         -6.01669       32.84733       -7.42344
C         -5.92466       31.68447       -6.44941
O         -6.11145       30.54803       -6.86164
C         -4.64000       33.54880       -7.56343
C         -4.49567       34.56021       -8.72898
C         -5.33320       35.81514       -8.65318
O         -4.74299       37.02574       -8.59775
O         -6.54675       35.75879       -8.75604
H         -6.71149       34.71303       -6.69300
H         -6.30783       32.45764       -8.42469
H         -3.88696       32.75521       -7.76583
H         -4.36441       34.03696       -6.60884
H         -4.71218       34.04031       -9.68426
H         -3.42900       34.87504       -8.74627
N         -5.71315       31.90714       -5.12200
C         -5.73540       30.83692       -4.14886
H         -5.58996       31.25039       -3.12796
H         -6.72184       30.32356       -4.17735
H         -4.92979       30.10523       -4.36315
H         -5.57666       32.87016       -4.78196
Ca        -3.82097       37.82901      -10.49408
O         -0.84647       37.98055      -10.50229
H         -1.24295       38.22860       -9.62917
H         -0.20233       38.70656      -10.69463
O         -4.28708       35.09601      -12.03011
H         -5.05271       35.69499      -11.84086
H         -3.51801       35.70600      -12.15347
O         -4.57888       41.12177      -10.79412
H         -4.31862       41.93393      -11.29700
H         -5.53414       41.26011      -10.57343
O         -7.23504       38.52129      -10.01023
H         -6.55877       38.28495      -10.69191
H         -7.88234       37.77312      -10.04107

Ca 1.0



