%chk=apoCaM-CA-Ng.loop1.water0.frame821.chk
%nprocshared=20
%mem=10GB
%nosave
#b3lyp/svp scf=(tight,noincore,xqc) Test 
#IOP(5/87=12) Density=Current Pop=(MK,readradii) iop(6/33=2) iop(6/42=6)

apoCaM-CA-Ng.loop1.water0.frame821 

   0  1 
C         25.28475       80.47330       66.19228
C         25.94265       79.46879       65.29370
O         25.70743       78.27837       65.44522
H         24.58279       79.97717       66.89520
H         26.06702       80.99854       66.78049
H         24.72531       81.21779       65.58784
N         26.78231       79.89222       64.31135
C         27.50532       78.97538       63.43790
C         28.57184       78.18310       64.24357
O         29.38122       78.98789       65.05711
C         27.99952       79.67097       62.13787
C         28.79381       80.95072       62.22875
O         29.04584       81.56019       63.40233
O         29.17908       81.47565       61.19595
H         26.89074       80.90824       64.18676
H         26.78936       78.21272       63.05871
H         27.09420       79.93117       61.54693
H         28.57544       78.92934       61.54336
N         29.35644       77.22638       63.43295
C         30.11028       76.26942       64.28920
C         31.60624       76.60983       64.27775
O         32.32866       76.11698       65.13235
C         29.88665       74.78477       63.83972
C         29.73548       73.79060       65.01032
C         29.40544       72.37652       64.48286
C         28.97251       71.38229       65.57672
N         30.03875       71.08956       66.53260
H         28.66945       76.72825       62.82343
H         29.72640       76.36589       65.33202
H         30.67502       74.46890       63.11887
H         28.91917       74.69895       63.30403
H         28.87421       74.13449       65.62697
H         30.64595       73.77549       65.64339
H         30.27225       71.97088       63.91781
H         28.54421       72.45111       63.78233
H         28.66921       70.43226       65.08101
H         28.08151       71.77786       66.11419
H         29.68977       70.37855       67.21620
H         30.86830       70.69559       66.03283
H         30.30769       71.94993       67.05952
N         32.15021       77.39368       63.28996
C         33.57660       77.71494       63.19092
C         34.07959       78.61598       64.32898
O         33.26416       79.23009       64.99668
C         33.88850       78.34929       61.79853
C         33.32483       79.71044       61.41911
O         33.70028       80.19686       60.36413
O         32.44831       80.42784       62.15211
H         31.53735       77.71486       62.52605
H         34.12065       76.74796       63.23600
H         33.57478       77.63213       61.00954
H         34.97930       78.46430       61.70028
N         35.40460       78.79259       64.62960
C         36.50950       77.98842       64.12653
C         36.52532       76.62849       64.78778
O         35.67376       76.35830       65.62466
H         35.64609       79.49750       65.34409
H         37.46707       78.47912       64.40387
H         36.49699       77.90786       63.02776
N         37.47814       75.71060       64.45233
C         37.52934       74.37388       65.04352
C         38.92514       74.05919       65.57728
O         39.84461       74.83354       65.34652
C         37.05315       73.38413       63.95796
C         36.76587       71.99594       64.45155
O         37.18097       71.02784       63.83539
O         35.97785       71.81124       65.52871
H         38.14992       75.94776       63.70528
H         36.81864       74.31810       65.89650
H         37.76762       73.36223       63.10349
H         36.08451       73.77040       63.57737
N         39.15776       72.92404       66.30297
C         40.48550       72.50941       66.73543
C         41.16629       73.43416       67.72073
O         42.33927       73.20185       67.98297
H         38.37619       72.28955       66.51284
H         41.12540       72.43393       65.82960
H         40.43325       71.50111       67.19917
N         40.53428       74.49611       68.29771
C         41.23476       75.47590       69.12190
C         41.17896       76.82800       68.43996
O         40.47195       76.98167       67.45034
C         40.67868       75.52123       70.57370
C         39.18588       75.87427       70.67107
O         40.93392       74.30826       71.23689
H         39.53430       74.65586       68.10808
H         42.31440       75.21783       69.19633
H         41.23288       76.30955       71.12817
H         40.40461       73.59829       70.78951
H         38.55974       75.09688       70.18671
H         38.88884       75.93740       71.74019
H         38.97890       76.85373       70.19357
N         41.94163       77.85326       68.90162
C         41.93970       79.18442       68.30839
C         43.30748       79.47794       67.70458
O         43.36001       79.89303       66.55657
C         41.50197       80.24857       69.35277
C         40.19954       79.78827       70.06644
C         41.29641       81.60546       68.64565
C         39.68826       80.75497       71.13277
H         42.54529       77.68091       69.72014
H         41.19135       79.23619       67.48388
H         42.29852       80.35276       70.12240
H         40.40224       78.83107       70.59198
H         39.39235       79.61149       69.32216
H         42.22239       81.92939       68.12769
H         40.48051       81.52811       67.89271
H         41.03605       82.40405       69.36746
H         40.47714       80.94701       71.89001
H         39.35759       81.71195       70.68233
H         38.80995       80.30282       71.64093
N         44.45911       79.20438       68.39208
C         45.79685       79.40108       67.83250
C         46.69198       80.10650       68.84701
O         46.31015       80.25252       69.99846
C         46.38810       78.02689       67.41795
C         45.55986       77.38331       66.29636
O         47.70733       78.17732       66.96092
H         44.39401       78.76877       69.32149
H         45.74094       80.04868       66.92962
H         46.37694       77.36412       68.31578
H         48.15062       77.29416       67.06343
H         44.51056       77.21379       66.61364
H         45.56470       78.03635       65.39613
H         45.99557       76.40083       66.01793
N         47.89512       80.61747       68.45253
C         48.79451       81.34396       69.34293
C         48.69302       82.81311       69.00526
O         48.27227       83.58916       69.85366
C         50.24209       80.77824       69.24404
C         51.22040       81.55149       70.13276
O         50.72842       80.81454       67.92548
H         48.14422       80.56013       67.45487
H         48.46826       81.23143       70.40079
H         50.23597       79.72339       69.60697
H         50.45706       79.96848       67.48285
H         51.29220       82.61224       69.80731
H         50.89381       81.51776       71.19257
H         52.23349       81.10168       70.05622
N         49.02704       83.25747       67.76807
C         48.84613       84.62731       67.31607
C         47.91561       84.61495       66.11494
O         47.65115       83.54599       65.57572
C         50.22561       85.30142       67.09780
C         51.22435       84.47619       66.25788
C         52.63470       85.08747       66.28598
C         53.65222       84.14791       65.61598
N         55.00984       84.68596       65.70321
H         49.38056       82.57722       67.08135
H         48.32245       85.22037       68.09865
H         50.67687       85.40579       68.11020
H         50.10082       86.32331       66.67909
H         50.86098       84.36598       65.21389
H         51.32737       83.46999       66.71198
H         52.94699       85.22329       67.34565
H         52.63238       86.07971       65.78592
H         53.37959       83.99414       64.54908
H         53.63038       83.15865       66.12798
H         55.28265       84.81608       66.70500
H         55.67462       84.00885       65.26307
H         55.06942       85.59924       65.19832
N         47.29306       85.75077       65.69348
C         46.29033       85.71821       64.63019
C         45.11741       84.80142       64.99547
O         44.90980       83.85106       64.25450
C         45.79672       87.12450       64.22179
C         46.92716       87.95552       63.59754
C         46.42884       89.29728       63.14611
O         45.54716       89.37686       62.30512
O         46.96641       90.42176       63.65533
H         47.51246       86.64258       66.16429
H         46.76993       85.29097       63.71937
H         45.35687       87.67833       65.07377
H         45.00055       86.99928       63.45405
H         47.33934       87.41789       62.71590
H         47.74457       88.09971       64.33478
N         44.29332       84.95872       66.07628
C         44.38287       85.98467       67.09370
H         43.44658       86.58279       67.08962
H         44.48653       85.50188       68.08790
H         45.24246       86.65983       66.96710
H         43.52759       84.27636       66.19679
Ca        31.02673       79.83632       63.77437

Ca 1.0



