%chk=apoCaM-CA-Ng.loop2.water3.frame596.chk
%nprocshared=20
%mem=10GB
%nosave
#b3lyp/svp scf=(tight,noincore,xqc) Test 
#IOP(5/87=12) Density=Current Pop=(MK,readradii) iop(6/33=2) iop(6/42=6)

apoCaM-CA-Ng.loop2.water3.frame596 

   -2  1 
C         32.61623       93.10788       92.63944
C         31.20660       93.55796       92.93341
O         30.38548       92.75049       93.34194
H         33.31349       93.51781       93.40022
H         32.69402       92.00008       92.64173
H         32.93558       93.47474       91.63854
N         30.85251       94.84810       92.68559
C         29.50777       95.39857       92.86769
C         29.09836       95.46228       94.33197
O         29.80272       96.00674       95.16830
C         29.41688       96.75001       92.13277
C         28.13967       97.54366       92.27709
O         28.07722       98.65574       91.77702
O         27.05932       97.05155       92.91141
H         31.57601       95.45265       92.26515
H         28.77968       94.74834       92.34651
H         29.50703       96.50648       91.05027
H         30.27268       97.38671       92.43477
N         27.89262       94.92545       94.66406
C         27.31240       94.85192       95.99314
C         28.10954       93.96550       96.92409
O         28.86286       93.11918       96.45968
C         25.87826       94.31059       95.83343
H         27.31372       94.58142       93.88546
H         27.29240       95.86647       96.42931
H         25.88885       93.36607       95.24401
H         25.35041       94.09044       96.77659
H         25.29586       95.06677       95.26625
N         27.99235       94.07604       98.27829
C         27.10816       95.02320       98.96700
C         27.63701       96.46458       98.98854
O         28.83514       96.68922       98.89863
C         26.65615       94.47540      100.34044
C         27.80973       93.98375      101.16510
O         28.79240       94.67283      101.30008
O         27.83268       92.72800      101.64413
H         28.54711       93.42037       98.84252
H         26.16467       95.09746       98.40859
H         25.97444       93.60974      100.17748
H         26.07425       95.24838      100.88729
N         26.72734       97.49158       98.97844
C         27.02357       98.91108       98.79630
C         26.86427       99.33697       97.34331
O         26.54274       98.49706       96.51346
H         25.73016       97.24176       98.99543
H         28.04049       99.16836       99.15715
H         26.28065       99.49542       99.38264
N         27.09128      100.62154       96.92341
C         27.47234      101.73185       97.80286
C         28.93913      102.13644       97.64452
O         29.32441      103.11819       98.26432
C         26.50837      102.92915       97.61003
C         25.08896      102.48825       97.87456
N         24.19643      102.40257       96.86192
O         24.75728      102.15757       99.00394
H         26.98456      100.82179       95.91359
H         27.38121      101.43959       98.86388
H         26.60519      103.32864       96.57740
H         26.76666      103.75717       98.31138
H         24.45901      102.67272       95.90320
H         23.25412      102.01940       97.02824
N         29.84364      101.40797       96.91673
C         31.27030      101.73782       96.90239
C         31.93582      101.58873       98.26835
O         32.97781      102.19294       98.48042
H         29.53228      100.58807       96.37549
H         31.38169      102.79278       96.57658
H         31.81593      101.10420       96.16832
N         31.40916      100.77517       99.22739
C         31.91132      100.67211      100.60043
C         32.68300       99.37518      100.84018
O         32.18231       98.29731      100.57799
C         30.74831      100.85580      101.61540
C         30.47754      102.34636      101.83084
O         29.56639      100.25709      101.16929
H         30.59515      100.19977       98.97069
H         32.63463      101.48676      100.80871
H         31.02804      100.41446      102.60084
H         29.80590       99.32470      100.98151
H         30.20098      102.82724      100.87279
H         29.66385      102.51570      102.56790
H         31.39442      102.83689      102.22088
N         33.95350       99.45858      101.34233
C         34.90649       98.36187      101.52595
C         34.69576       97.58853      102.85703
O         34.73627       98.19235      103.91833
C         36.36542       98.96072      101.43689
C         37.49923       97.90490      101.60226
C         36.60517       99.80306      100.14645
C         38.90624       98.51296      101.43900
H         34.31529      100.40698      101.50625
H         34.81265       97.69074      100.67171
H         36.45697       99.66428      102.28862
H         37.39934       97.06340      100.88228
H         37.43314       97.48456      102.62716
H         37.54444      100.38073      100.26835
H         36.69597       99.18347       99.22930
H         35.84562      100.58911       99.96647
H         39.67461       97.81976      101.83079
H         39.14312       98.70699      100.36607
H         38.98835       99.47035      101.99635
N         34.51273       96.23120      102.85359
C         34.49833       95.31372      103.99649
C         35.39620       94.06255      103.79547
O         35.40323       93.20256      104.66785
C         33.03779       94.94938      104.35994
C         32.10414       94.86903      103.18721
O         31.37799       95.94063      102.82855
O         32.14460       93.91428      102.43241
H         34.34296       95.78217      101.97095
H         34.93562       95.81567      104.88258
H         32.68615       95.78724      104.99172
H         32.98349       94.01949      104.96186
N         36.26193       93.96454      102.74098
C         37.28672       92.94271      102.54417
C         37.29585       92.49117      101.07056
O         38.32452       92.60663      100.41708
C         38.62216       93.62134      102.95162
C         39.89090       92.80540      103.05310
C         41.08882       93.48384      103.35746
C         39.91932       91.41035      102.90754
C         42.27995       92.77380      103.55297
C         41.11106       90.70641      103.09502
C         42.28677       91.38337      103.43390
H         36.31737       94.74982      102.10657
H         37.10533       92.06329      103.20407
H         38.46985       94.03738      103.97284
H         38.79326       94.46544      102.24894
H         41.09135       94.56453      103.45475
H         39.02465       90.85491      102.67633
H         43.19718       93.29269      103.80866
H         41.10998       89.63073      102.99177
H         43.20301       90.83281      103.60662
N         36.18127       91.96971      100.46832
C         36.12577       91.42251       99.10378
C         36.69834       92.30070       97.98631
O         37.12693       91.80642       96.95462
C         34.61331       91.20905       98.90748
C         34.20223       90.77545      100.29185
C         34.91762       91.78883      101.15730
H         36.66017       90.45619       99.11762
H         34.08323       92.17725       98.70709
H         34.35879       90.47248       98.12191
H         33.11237       90.70154      100.48118
H         34.67944       89.78512      100.47357
H         34.35591       92.75212      101.19346
H         35.03495       91.34917      102.16918
N         36.63697       93.63299       98.13293
C         36.98242       94.66193       97.17640
C         38.49416       94.73973       97.05957
O         39.01822       94.66094       95.95759
C         36.34882       96.02020       97.59583
C         34.84053       95.92672       97.96786
C         34.57563       95.59715       99.39465
O         33.32548       95.68002       99.87699
O         35.50519       95.47258      100.16449
H         36.27384       93.89939       99.01509
H         36.50466       94.42097       96.19960
H         36.40448       96.68961       96.71299
H         36.91148       96.51072       98.42129
H         34.31043       95.20434       97.31841
H         34.39499       96.93371       97.85578
N         39.25729       94.85690       98.18826
C         40.70515       94.78651       98.20289
H         41.12938       95.79902       98.35369
H         41.02757       94.14998       99.05831
H         41.11298       94.32728       97.27697
H         38.79311       94.94262       99.10459
Ca        31.21136       95.82550      100.60752
O         30.84033       93.21793       99.68878
H         30.37038       92.75587      100.42710
H         30.98443       92.51861       99.00585
O         29.25264       97.37974      101.89843
H         28.93895       96.56882      102.33200
H         29.02200       98.04343      102.58665
O         31.48893       95.58402       97.81311
H         31.78998       94.87617       97.19237
H         30.73722       96.02692       97.35416

Ca 1.0



