%chk=apoCaM-CA-Ng.loop4.water3.frame494.chk
%nprocshared=20
%mem=10GB
%nosave
#b3lyp/svp scf=(tight,noincore,xqc) Test 
#IOP(5/87=12) Density=Current Pop=(MK,readradii) iop(6/33=2) iop(6/42=6)

apoCaM-CA-Ng.loop4.water3.frame494 

   -3  1 
C         60.85245       69.74269       89.25045
C         60.90133       70.70132       90.40421
O         60.18194       71.68094       90.37981
H         61.85100       69.67375       88.77239
H         60.55206       68.73838       89.61869
H         60.11049       70.07320       88.49152
N         61.74531       70.46325       91.44660
C         61.86784       71.22683       92.69339
C         60.70515       70.94472       93.68965
O         59.59585       71.78366       93.53162
C         62.31676       72.70527       92.50844
C         61.37413       73.65751       91.81340
O         60.19087       73.98993       92.35997
O         61.70663       74.17882       90.76036
H         62.35522       69.63432       91.36554
H         62.72987       70.76455       93.22546
H         63.26493       72.68016       91.92692
H         62.54828       73.13631       93.50560
N         60.41571       69.49073       93.74710
C         59.38674       68.87452       94.63013
C         59.32407       69.45541       96.04183
O         59.70601       68.75830       96.97219
C         58.01679       68.75304       93.91184
C         56.93343       68.00855       94.74051
C         58.19789       68.06675       92.53951
C         57.24430       66.54728       95.07555
H         61.32654       69.03353       93.99038
H         59.71823       67.81800       94.75836
H         57.62584       69.76910       93.74421
H         55.97926       68.02871       94.16909
H         56.75895       68.54715       95.69226
H         58.86432       68.66342       91.88158
H         58.65154       67.06019       92.64637
H         57.22160       67.94911       92.02769
H         58.15317       66.46611       95.70447
H         56.39373       66.11890       95.64623
H         57.37113       65.94069       94.15613
N         58.86140       70.71135       96.28687
C         58.88400       71.32352       97.60945
C         57.81726       70.75537       98.55727
O         58.23453       70.27323       99.60129
C         58.88651       72.85998       97.49780
C         60.12885       73.40096       96.82655
O         60.25904       74.60621       96.68903
O         61.10633       72.58164       96.38868
H         58.53975       71.28414       95.50094
H         59.87124       71.10467       98.08166
H         58.84384       73.29726       98.51925
H         58.02765       73.20165       96.90542
N         56.46187       70.70357       98.34070
C         55.73059       71.11282       97.15281
C         55.50605       72.60827       97.04572
O         55.93994       73.33646       97.92661
H         55.89698       70.23065       99.06458
H         54.71580       70.66354       97.20352
H         56.23612       70.68803       96.27439
N         54.79650       73.17501       96.01918
C         54.08297       72.43246       94.97284
C         55.01305       71.56399       94.14329
O         56.20883       71.81685       94.16290
C         53.30590       73.42767       94.06461
C         54.20522       74.34631       93.27373
O         54.15040       75.67678       93.47053
O         54.96279       73.89616       92.42782
H         54.70968       74.20393       96.02712
H         53.35069       71.77935       95.49111
H         52.63857       74.03738       94.71012
H         52.65455       72.91144       93.34160
N         54.58130       70.53736       93.35406
C         53.21720       70.06088       93.20295
C         52.73805       69.26732       94.38680
O         53.47124       69.08843       95.34951
H         55.28770       70.02944       92.81576
H         53.19984       69.34242       92.35393
H         52.52136       70.86855       92.93304
N         51.51340       68.67568       94.31774
C         51.03117       67.71006       95.29475
C         51.01170       66.30372       94.69309
O         50.73580       65.36668       95.42953
C         49.70395       68.17929       95.93573
C         48.52934       68.46636       94.98353
C         48.02919       67.24953       94.25954
N         47.55190       66.18387       94.94199
O         48.03114       67.23509       93.04034
H         50.93627       68.84889       93.48017
H         51.75419       67.63390       96.13692
H         49.92027       69.13254       96.46653
H         49.39143       67.44463       96.70876
H         48.82049       69.25538       94.25753
H         47.68557       68.86999       95.58368
H         47.52483       66.18246       95.97116
H         47.19998       65.35783       94.43985
N         51.40460       66.06974       93.39951
C         51.67352       64.74164       92.85343
C         50.83442       64.41100       91.62423
O         51.03470       63.33308       91.08114
C         53.19188       64.62337       92.50222
C         54.06817       64.83158       93.74629
C         53.63526       65.59371       91.38896
H         51.62079       66.86123       92.78254
H         51.44910       63.95760       93.61025
H         53.38127       63.58923       92.13733
H         53.94994       65.85936       94.15200
H         53.79493       64.09954       94.53515
H         55.13802       64.67928       93.48870
H         54.70347       65.42285       91.13747
H         53.04199       65.43473       90.46419
H         53.52958       66.65096       91.70332
N         49.87888       65.25352       91.13044
C         49.09352       64.93775       89.93803
C         49.13363       66.03890       88.88174
O         48.57162       65.80392       87.81934
C         47.61625       64.71262       90.33335
C         47.43056       63.59831       91.33170
N         47.78413       62.32726       91.03277
O         46.93343       63.84429       92.41936
H         49.67017       66.12225       91.63379
H         49.47512       64.01186       89.45663
H         47.01430       64.46357       89.43211
H         47.21395       65.65663       90.76210
H         48.19100       62.09240       90.11653
H         47.64183       61.57219       91.72023
N         49.66437       67.28196       89.10848
C         49.43561       68.39776       88.19150
C         50.70228       69.17328       87.87175
O         51.35924       69.64391       88.78933
C         48.41608       69.36742       88.83159
C         47.12136       68.67874       89.20686
C         46.69369       68.66903       90.54513
C         46.33271       68.03880       88.23392
C         45.50785       68.02356       90.90634
C         45.14881       67.38947       88.59809
C         44.73286       67.37764       89.93329
O         43.59055       66.74481       90.26865
H         50.10382       67.50155       90.01281
H         48.98316       68.04610       87.24014
H         48.18633       70.18736       88.11770
H         48.87132       69.82466       89.73837
H         47.27947       69.15903       91.31235
H         46.63500       68.03390       87.19479
H         45.19564       68.02315       91.94310
H         44.55475       66.89307       87.84102
H         43.26965       66.71178       91.18126
N         51.02889       69.44304       86.57090
C         52.06343       70.38726       86.14011
C         53.49125       69.96486       86.44578
O         54.38507       70.74418       86.14176
C         51.79527       71.80873       86.70542
C         50.39233       72.35107       86.38735
C         50.13459       72.45083       84.91091
O         49.11462       71.76700       84.35819
O         50.83989       73.15686       84.20781
H         50.43912       69.04097       85.82631
H         52.01035       70.46550       85.03128
H         52.54379       72.51700       86.28567
H         51.92892       71.81499       87.80687
H         50.29241       73.36406       86.83296
H         49.62666       71.69865       86.85516
N         53.80691       68.75207       86.98104
C         55.18349       68.35701       87.26527
C         55.66898       67.26413       86.33223
O         56.82857       66.88914       86.44754
C         55.28027       67.86737       88.71508
C         54.85139       68.90214       89.75332
C         55.81629       70.03998       89.85186
O         56.58691       70.05903       90.94036
O         55.91840       70.89748       88.99009
H         53.06137       68.06838       87.17602
H         55.88141       69.20873       87.11702
H         56.32262       67.54913       88.94720
H         54.62219       66.97856       88.82720
H         54.87520       68.37023       90.72938
H         53.81565       69.26739       89.60590
N         54.86400       66.71234       85.37929
C         55.31095       65.68080       84.46739
H         56.37652       65.40864       84.62014
H         54.69220       64.77184       84.61408
H         55.18918       66.04067       83.42499
H         53.88745       67.02069       85.27852
Ca        58.11720       71.32833       91.89307
O         58.08190       73.67665       89.29897
H         57.14937       73.35269       89.22592
H         58.58515       73.13532       88.64020
O         57.82960       74.48457       94.52973
H         56.98591       74.70839       94.06542
H         57.83881       75.08351       95.31765
O         57.58784       75.81098       91.50630
H         57.15971       76.63288       91.15810
H         58.42675       76.12749       91.92620

Ca 1.0



