%chk=apoCaM-CA-Ng.loop3.water3.frame930.chk
%nprocshared=20
%mem=10GB
%nosave
#b3lyp/svp scf=(tight,noincore,xqc) Test 
#IOP(5/87=12) Density=Current Pop=(MK,readradii) iop(6/33=2) iop(6/42=6)

apoCaM-CA-Ng.loop3.water3.frame930 

   0  1 
C        -30.75952        0.05555       92.47426
C        -32.18436       -0.36577       92.63859
O        -32.54071       -1.43791       92.17029
H        -30.20097       -0.69313       91.87210
H        -30.69630        1.04677       91.98327
H        -30.29477        0.10797       93.48215
N        -33.06099        0.42778       93.31701
C        -34.39240       -0.02493       93.69624
C        -35.46852        0.61862       92.82749
O        -35.23721        1.68827       92.28118
C        -34.54012        0.19999       95.22068
C        -35.61795       -0.57253       95.91913
O        -35.72158       -0.48295       97.25840
O        -36.36368       -1.31837       95.31426
H        -32.74484        1.35384       93.64700
H        -34.44966       -1.10404       93.51792
H        -34.64808        1.28635       95.42605
H        -33.60219       -0.14299       95.70578
N        -36.65835       -0.02382       92.61541
C        -37.74686        0.49350       91.78349
C        -38.91752        0.98488       92.63528
O        -39.81652        1.61477       92.09570
C        -38.15816       -0.55369       90.71698
C        -38.75635       -1.85656       91.29323
C        -39.02383       -2.88137       90.18024
C        -39.61282       -4.21060       90.69182
N        -40.96979       -4.07394       91.21309
H        -36.80688       -0.92505       93.07905
H        -37.38593        1.39404       91.24034
H        -37.25183       -0.80328       90.12212
H        -38.90430       -0.10076       90.02783
H        -39.69570       -1.61415       91.83149
H        -38.04376       -2.32767       91.99758
H        -38.04950       -3.10990       89.69395
H        -39.70068       -2.45568       89.40988
H        -38.96660       -4.64530       91.47988
H        -39.64500       -4.91660       89.83525
H        -41.58851       -3.64071       90.49093
H        -41.33410       -5.02858       91.43913
H        -40.97515       -3.50436       92.08714
N        -38.92366        0.79663       93.98526
C        -39.83859        1.42193       94.92980
C        -39.02228        2.32562       95.85005
O        -39.30956        3.51192       95.92244
C        -40.69378        0.36951       95.69063
C        -40.02196       -0.93770       96.08599
O        -40.47728       -1.98075       95.64960
O        -38.95942       -0.99510       96.91451
H        -38.18671        0.22083       94.40054
H        -40.56669        2.08912       94.41158
H        -41.52190        0.08851       95.00098
H        -41.16849        0.85616       96.57059
N        -37.94747        1.83938       96.52750
C        -37.05329        2.62360       97.35810
C        -36.92450        2.06024       98.76072
O        -36.07205        2.55132       99.48855
H        -37.69822        0.86005       96.40909
H        -37.35627        3.69046       97.41236
H        -36.04975        2.58289       96.88386
N        -37.72968        1.05715       99.22644
C        -37.63670        0.50553      100.57686
C        -37.48534       -1.00850      100.58158
O        -37.57725       -1.63749       99.54211
C        -38.90066        0.89311      101.37790
C        -40.19507        0.44353      100.72851
N        -41.16948        1.34023      100.44907
O        -40.37332       -0.73739      100.46848
H        -38.47941        0.69561       98.62284
H        -36.75083        0.92212      101.10427
H        -38.91240        1.99631      101.50180
H        -38.84702        0.45017      102.39337
H        -41.05418        2.33681      100.68297
H        -42.05355        1.03431      100.01615
N        -37.28733       -1.65947      101.76102
C        -37.29345       -3.10368      101.92709
C        -36.27156       -3.81163      101.07629
O        -35.10903       -3.43102      101.09266
H        -37.16244       -1.09704      102.61673
H        -38.30927       -3.49825      101.70876
H        -37.07215       -3.32846      102.99305
N        -36.63396       -4.91666      100.36021
C        -35.67717       -5.68485       99.57895
C        -35.34519       -4.90340       98.26712
O        -36.52681       -4.87684       97.50951
C        -36.21823       -7.11230       99.24540
C        -36.86146       -7.85769      100.40372
C        -38.18261       -8.32970      100.26484
C        -36.17902       -8.10491      101.60816
C        -38.80687       -9.02820      101.30031
C        -36.81271       -8.79924      102.65050
C        -38.12546       -9.26314      102.49983
O        -38.72049       -9.93227      103.50925
H        -37.60044       -5.26468      100.44537
H        -34.76957       -5.83593      100.20796
H        -35.37943       -7.72164       98.84456
H        -36.97552       -7.03984       98.44011
H        -38.73466       -8.16587       99.34764
H        -35.16372       -7.75839      101.74632
H        -39.82085       -9.38632      101.16724
H        -36.28410       -8.97972      103.57815
H        -39.62678      -10.26783      103.44166
N        -34.29973       -5.61445       97.50294
C        -33.68894       -4.92308       96.33795
C        -34.68206       -4.73413       95.19511
O        -35.60261       -3.94618       95.33275
C        -32.98910       -3.56670       96.69755
C        -32.31448       -2.89733       95.46076
C        -31.96380       -3.72151       97.83470
C        -31.17615       -3.69523       94.81340
H        -33.53432       -5.91364       98.15065
H        -32.89951       -5.61217       95.97277
H        -33.76534       -2.85451       97.05633
H        -31.90459       -1.90953       95.76357
H        -33.07975       -2.70232       94.68337
H        -31.18675       -4.46985       97.57462
H        -31.47036       -2.74734       98.04100
H        -32.45925       -4.03847       98.77427
H        -30.77435       -3.12347       93.94997
H        -30.34313       -3.85594       95.52733
H        -31.53133       -4.67319       94.43233
N        -34.51377       -5.38183       94.00082
C        -35.36652       -5.09902       92.84689
C        -35.52285       -6.30031       91.91681
O        -34.88125       -7.32240       92.09312
C        -34.79379       -3.88080       92.10752
O        -35.60835       -3.48237       91.04033
H        -33.69642       -5.99444       93.87753
H        -36.38887       -4.85251       93.21271
H        -33.76996       -4.12396       91.74535
H        -34.74260       -3.05430       92.82971
H        -35.07615       -2.83613       90.50738
N        -36.45875       -6.22683       90.92858
C        -36.84634       -7.30292       90.02076
C        -37.07830       -6.70652       88.62403
O        -37.58004       -5.59386       88.57167
C        -38.15496       -7.87145       90.58011
H        -37.03091       -5.37793       90.90477
H        -36.10152       -8.12661       90.01433
H        -38.95812       -7.10644       90.58203
H        -38.49854       -8.74955       90.01353
H        -37.99386       -8.20913       91.62661
N        -36.76857       -7.29888       87.42946
C        -36.25354       -8.64682       87.19317
C        -37.28840       -9.70787       87.56271
O        -38.44148       -9.34807       87.75328
C        -35.94371       -8.75591       85.68117
H        -36.94386       -6.71212       86.59586
H        -35.32565       -8.78104       87.78878
H        -35.55967       -9.72914       85.33955
H        -36.87019       -8.56482       85.09555
H        -35.19162       -7.98797       85.40272
N        -37.00505      -11.04143       87.68020
C        -35.69198      -11.65254       87.50905
C        -34.96154      -11.68068       88.83085
O        -33.89951      -11.08004       88.92562
C        -35.85024      -13.05982       86.88869
C        -34.50120      -13.70756       86.54378
C        -34.69953      -15.08568       85.97975
O        -34.32261      -15.34952       84.84914
O        -35.28140      -16.04336       86.72753
H        -37.77733      -11.66342       87.97047
H        -35.07627      -11.06680       86.81397
H        -36.44117      -12.97333       85.94922
H        -36.41623      -13.71390       87.58769
H        -33.86784      -13.79213       87.45133
H        -33.97345      -13.06913       85.80058
N        -35.47033      -12.35764       89.89656
C        -34.81027      -12.41929       91.18443
H        -33.85657      -11.85016       91.20095
H        -35.48133      -11.99707       91.96041
H        -34.58792      -13.47794       91.43152
H        -36.36683      -12.85653       89.79775
Ca       -37.67971       -2.89035       97.22166
O        -38.65861       -3.74102       94.19186
H        -38.97545       -4.63272       93.90430
H        -39.34541       -3.12306       93.84277
O        -39.98421       -3.99826       98.51344
H        -40.54641       -3.32230       98.96741
H        -39.61594       -4.55207       99.24628
O        -38.66033       -5.85325       96.15160
H        -38.76543       -6.11712       97.09940
H        -37.91078       -6.40681       95.81511

Ca 1.0



