%chk=apoCaM-CA-Ng.loop4.water7.frame1063.chk
%nprocshared=20
%mem=10GB
%nosave
#b3lyp/svp scf=(tight,noincore,xqc) Test 
#IOP(5/87=12) Density=Current Pop=(MK,readradii) iop(6/33=2) iop(6/42=6)

apoCaM-CA-Ng.loop4.water7.frame1063 

   -3  1 
C         33.81158       72.25057       62.70975
C         35.07227       72.44882       61.90878
O         35.25687       71.70842       60.95398
H         32.92939       72.40292       62.05449
H         33.79349       71.21078       63.10055
H         33.72177       72.92836       63.57688
N         36.02134       73.38287       62.21029
C         35.93381       74.33521       63.31291
C         34.84255       75.37071       63.05894
O         33.93654       75.49802       63.86982
C         37.28165       75.07775       63.50568
C         38.41127       74.15022       63.85129
O         38.36982       73.42839       64.98651
O         39.38523       74.06872       63.11905
H         36.87235       73.39180       61.62542
H         35.73285       73.78578       64.25995
H         37.18533       75.81804       64.32944
H         37.55239       75.62736       62.58229
N         34.93167       76.20216       61.98154
C         34.07285       77.36452       61.75146
C         34.86035       78.66000       61.96409
O         34.29046       79.72742       61.78361
C         33.50367       77.36651       60.29401
C         34.64085       77.40494       59.22806
C         32.55538       76.18087       60.07042
C         34.16035       77.70883       57.81112
H         35.72228       76.06359       61.34076
H         33.22870       77.38083       62.47589
H         32.89800       78.29456       60.18495
H         35.19002       76.44249       59.21656
H         35.36225       78.21128       59.47707
H         31.74042       76.20162       60.82442
H         32.07815       76.24184       59.07096
H         33.10017       75.21703       60.15172
H         33.47972       76.92276       57.43132
H         33.64790       78.69420       57.78663
H         35.04111       77.75728       57.13446
N         36.18278       78.64171       62.30061
C         37.04831       79.81619       62.29787
C         38.42158       79.38741       62.78725
O         38.95122       78.41854       62.25545
C         37.15957       80.36720       60.85273
C         37.95933       81.63871       60.73384
O         38.12436       82.13871       59.63302
O         38.47318       82.25140       61.81789
H         36.62029       77.74074       62.52223
H         36.62512       80.59856       62.96589
H         36.15233       80.59247       60.44848
H         37.61482       79.58822       60.20309
N         39.06148       80.04371       63.79762
C         40.32506       79.56621       64.34053
C         41.42963       79.41466       63.30900
O         42.40602       78.74773       63.62001
H         38.62649       80.87749       64.22059
H         40.12833       78.55820       64.76586
H         40.67240       80.21869       65.17075
N         41.35162       79.98118       62.06793
C         42.32422       79.73745       61.00499
C         41.60008       79.21491       59.75724
O         40.39458       79.39340       59.66544
C         43.07988       81.04801       60.69785
C         43.92973       81.48378       61.86255
O         43.36531       81.79802       63.04401
O         45.14177       81.56289       61.73797
H         40.56919       80.61515       61.85412
H         43.05268       78.96376       61.32805
H         42.35872       81.85300       60.44056
H         43.74483       80.92385       59.82609
N         42.23383       78.55426       58.73993
C         43.64478       78.21273       58.76678
C         44.11425       77.57831       57.47209
O         43.87816       78.18475       56.43694
H         41.66834       78.25893       57.92745
H         43.80630       77.56859       59.63973
H         44.24807       79.12765       58.87077
N         44.83195       76.41348       57.39101
C         45.27333       75.56277       58.49420
C         44.05596       74.92853       59.13811
O         43.77469       75.13051       60.31076
C         46.26619       76.31996       59.41557
C         47.03891       75.39562       60.36894
C         48.05479       76.15231       61.19911
N         48.87151       75.48142       62.04197
O         48.15301       77.36886       61.11256
H         45.11150       76.10345       56.44651
H         45.86160       74.72746       58.05011
H         45.78668       77.11498       60.00984
H         47.01954       76.80598       58.75652
H         47.58255       74.63848       59.76315
H         46.33752       74.87066       61.05076
H         48.81514       74.45618       62.12372
H         49.56956       75.98873       62.60640
N         43.26627       74.14864       58.34838
C         41.97811       73.58192       58.73058
C         40.91859       74.11965       57.76867
O         41.25075       74.92438       56.90729
C         42.04281       72.02326       58.74275
C         43.02129       71.52937       59.81752
C         42.41164       71.41749       57.38062
H         43.58000       73.98184       57.37930
H         41.68889       73.90706       59.75456
H         41.04249       71.62930       59.02271
H         44.05635       71.86892       59.60190
H         42.71782       71.91333       60.81511
H         43.01377       70.41896       59.86270
H         42.38320       70.30807       57.43573
H         41.68151       71.73766       56.61466
H         43.43069       71.71910       57.06170
N         39.62066       73.71251       57.84616
C         38.57471       74.21374       56.95349
C         38.06803       73.13401       56.00416
O         37.19914       73.42851       55.19405
C         37.41027       74.74173       57.81122
C         37.88409       75.74142       58.83211
N         38.43404       76.91618       58.45763
O         37.77651       75.47882       60.01881
H         39.35394       73.01888       58.56095
H         38.96360       75.03842       56.31807
H         36.94973       73.88040       58.34748
H         36.62765       75.20470       57.17176
H         38.53855       77.16130       57.46326
H         38.75307       77.58185       59.17367
N         38.53671       71.85554       56.06582
C         37.99293       70.76112       55.26545
C         38.34536       69.41621       55.88034
O         39.18811       69.35530       56.76758
C         38.42333       70.82064       53.78144
C         39.91992       70.66906       53.60242
C         40.45031       69.49629       53.03541
C         40.79951       71.69187       53.99729
C         41.83250       69.34455       52.88390
C         42.18029       71.54080       53.83826
C         42.70189       70.36352       53.28544
O         44.03207       70.20115       53.13552
H         39.23861       71.63594       56.78097
H         36.88390       70.83051       55.33718
H         38.08789       71.76255       53.29844
H         37.90044       69.99073       53.25720
H         39.79682       68.69139       52.72259
H         40.42220       72.61091       54.42438
H         42.22835       68.43193       52.45600
H         42.84306       72.33871       54.14941
H         44.66702       70.88064       53.40412
N         37.64317       68.30040       55.53249
C         37.77731       67.06542       56.28510
C         36.59483       67.00352       57.22480
O         35.49024       66.67793       56.81151
C         37.94507       65.84655       55.36588
C         38.19175       64.56165       56.17259
C         38.44880       63.39274       55.26750
O         37.63822       62.31837       55.30450
O         39.40513       63.40140       54.50829
H         36.88259       68.37881       54.83912
H         38.69819       67.10394       56.90745
H         38.82621       66.03366       54.71263
H         37.04821       65.72630       54.71929
H         37.30807       64.34687       56.81162
H         39.07772       64.69421       56.83137
N         36.75876       67.45302       58.50106
C         35.68336       67.55836       59.48260
C         34.62730       68.59054       59.08422
O         33.61721       68.66372       59.77083
C         36.27073       67.96120       60.85883
C         37.27712       66.92332       61.38904
C         37.97204       67.41998       62.62198
O         39.18187       67.58357       62.61106
O         37.28314       67.68527       63.74547
H         37.70347       67.76064       58.77521
H         35.19584       66.56256       59.57598
H         35.45739       68.07832       61.60921
H         36.77927       68.94564       60.74330
H         38.06101       66.71734       60.63270
H         36.75752       65.96588       61.60486
N         34.78894       69.43500       58.02022
C         33.80423       70.42382       57.62629
H         32.90070       70.40895       58.27102
H         34.25732       71.43614       57.68128
H         33.48894       70.23030       56.57937
H         35.64924       69.40817       57.45782
Ca        38.47096       68.38306       65.53775
O         37.56335       70.74664       63.56033
H         37.62508       70.91967       64.53329
H         38.37852       71.16114       63.18087
O         40.33134       65.79495       64.97834
H         39.63931       65.09750       65.10055
H         40.55944       65.75152       64.01599
O         40.68024       67.66667       67.74247
H         41.66358       67.59221       67.65454
H         40.36458       66.73013       67.80101
O         35.65224       69.05190       66.15547
H         35.17791       69.88087       66.41495
H         35.16711       68.72563       65.35636
O         41.50034       69.29445       64.88308
H         41.56904       69.75619       65.75640
H         41.47717       70.02643       64.21665
O         38.59289       70.16604       67.99203
H         38.28409       69.51028       68.66673
H         37.85433       70.82210       67.92584
O         37.56965       66.08418       67.36219
H         37.28402       66.70331       68.08030
H         36.73758       65.87578       66.86767

Ca 1.0



