%chk=apoCaM-CA-Ng.loop4.water5.frame943.chk
%nprocshared=20
%mem=10GB
%nosave
#b3lyp/svp scf=(tight,noincore,xqc) Test 
#IOP(5/87=12) Density=Current Pop=(MK,readradii) iop(6/33=2) iop(6/42=6)

apoCaM-CA-Ng.loop4.water5.frame943 

   -3  1 
C         81.92639      127.97001       83.09496
C         81.29451      128.98691       82.19634
O         81.36330      128.83903       80.98528
H         82.69908      128.45910       83.72427
H         81.14924      127.52177       83.74880
H         82.40425      127.16316       82.49970
N         80.65155      130.06174       82.73585
C         80.00803      131.11572       81.95345
C         78.81005      130.60177       81.16170
O         78.27908      131.35547       80.35974
C         81.02021      131.82994       81.02522
C         82.31431      132.10381       81.73717
O         83.35382      131.64583       81.29290
O         82.33342      132.76534       82.90777
H         80.62996      130.15418       83.76350
H         79.63362      131.88738       82.66431
H         80.57302      132.78237       80.66436
H         81.23879      131.20408       80.13328
N         78.30171      129.34868       81.36688
C         77.16242      128.79585       80.64452
C         75.91562      129.03948       81.48801
O         75.83823      128.47706       82.57128
C         77.44072      127.28554       80.33405
C         78.56471      127.18866       79.26883
C         76.18029      126.53412       79.86840
C         79.07229      125.77808       78.97838
H         78.67783      128.77665       82.13588
H         77.05502      129.29795       79.67132
H         77.77579      126.79363       81.27501
H         79.44093      127.78202       79.60014
H         78.18739      127.61687       78.31933
H         75.38836      126.58339       80.64405
H         75.79055      126.95025       78.91985
H         76.39662      125.45656       79.72404
H         79.87558      125.83772       78.21203
H         79.49326      125.32381       79.89874
H         78.27255      125.13067       78.56800
N         74.90429      129.89076       81.11528
C         74.89171      130.70792       79.90163
C         74.12459      132.00413       80.12153
O         72.92444      131.98546       80.35462
C         74.36753      129.89814       78.70409
C         74.24509      130.73146       77.46187
O         73.07052      130.78027       76.80936
O         75.19487      131.37240       77.04506
H         74.13267      130.02602       81.78781
H         75.92008      131.03094       79.67029
H         73.37265      129.46464       78.94162
H         75.06795      129.06692       78.49778
N         74.80922      133.18180       80.07748
C         74.24039      134.48891       80.32152
C         73.37982      135.01505       79.19946
O         72.30015      135.51604       79.47853
H         75.82926      133.15953       79.92263
H         75.08714      135.20780       80.38712
H         73.71792      134.51426       81.30244
N         73.85333      135.04694       77.91894
C         73.26438      135.88512       76.87348
C         72.58391      135.13355       75.73662
O         72.06012      135.80268       74.85602
C         74.34885      136.87825       76.38136
C         75.59992      136.23117       75.83758
O         75.56827      135.56368       74.82081
O         76.77746      136.41287       76.46548
H         74.73683      134.55707       77.70915
H         72.45032      136.50849       77.30383
H         74.64973      137.49489       77.25596
H         73.92939      137.56512       75.61562
N         72.47299      133.77473       75.70014
C         71.70948      133.07849       74.66466
C         72.29363      133.17931       73.26423
O         71.67239      132.66746       72.34427
H         72.87621      133.21940       76.46461
H         70.67410      133.48591       74.65558
H         71.64105      131.99943       74.91761
N         73.48358      133.80045       73.02462
C         74.11382      133.94400       71.71697
C         74.57645      132.61616       71.13583
O         74.99575      132.59657       69.98612
C         73.25881      134.78893       70.74484
C         72.93555      136.16510       71.35636
C         72.33276      137.11137       70.35113
N         71.16377      136.82777       69.73334
O         72.91018      138.15819       70.09621
H         73.99747      134.19308       73.81252
H         75.05407      134.52424       71.85499
H         72.32301      134.26475       70.45901
H         73.85889      134.95000       69.82153
H         73.87566      136.62140       71.73971
H         72.23753      136.04209       72.21066
H         70.65663      135.95465       69.93414
H         70.76511      137.48836       69.04934
N         74.66198      131.49748       71.91501
C         75.25743      130.24301       71.46696
C         76.57213      129.96116       72.19307
O         77.22678      128.99264       71.83523
C         74.26582      129.05797       71.66335
C         73.87671      128.84251       73.14149
C         73.00255      129.24976       70.81600
H         74.36187      131.55122       72.89657
H         75.51649      130.30755       70.38689
H         74.76439      128.12826       71.30899
H         73.22548      127.94846       73.23823
H         74.77753      128.67271       73.76785
H         73.31690      129.70881       73.55118
H         72.44954      130.16109       71.12722
H         73.27365      129.34093       69.74311
H         72.33051      128.37204       70.92966
N         76.99886      130.72310       73.24723
C         78.17572      130.39374       74.04087
C         78.96634      131.64732       74.41226
O         78.47433      132.75844       74.27968
C         77.66276      129.69605       75.31526
C         78.71985      129.40858       76.34434
N         78.69369      130.05169       77.53580
O         79.60731      128.60449       76.10317
H         76.40940      131.48877       73.59650
H         78.84475      129.70295       73.48137
H         77.14029      128.75130       75.04892
H         76.91415      130.36905       75.76368
H         77.95336      130.73672       77.74958
H         79.41827      129.87495       78.24539
N         80.22927      131.50772       74.90357
C         81.04814      132.60809       75.39698
C         82.46575      132.10445       75.56725
O         82.65799      131.12912       76.28324
C         80.53992      133.10671       76.76910
C         81.36770      134.28480       77.22741
C         81.22644      135.52499       76.58578
C         82.30309      134.15204       78.26915
C         82.00279      136.61707       76.97961
C         83.08990      135.24338       78.65297
C         82.94140      136.47888       78.01217
O         83.70487      137.52297       78.39272
H         80.63570      130.56074       74.89736
H         81.03595      133.43295       74.65143
H         80.62268      132.26761       77.49674
H         79.47022      133.40403       76.73814
H         80.50972      135.64511       75.78283
H         82.44195      133.20158       78.76793
H         81.87667      137.56783       76.47738
H         83.81907      135.12767       79.44553
H         83.63209      138.39233       77.97291
N         83.50406      132.70920       74.92393
C         84.85253      132.16748       74.95808
C         85.83091      133.11982       75.64749
O         86.06216      134.19743       75.12517
C         85.27932      131.71121       73.53417
C         85.11607      132.70386       72.35998
C         86.04036      133.88133       72.39792
O         85.53863      135.13160       72.41281
O         87.24957      133.71493       72.39038
H         83.32358      133.55767       74.36825
H         84.83401      131.23588       75.52938
H         84.61248      130.85778       73.27701
H         86.31711      131.31438       73.55898
H         84.06251      133.04901       72.30021
H         85.32828      132.15532       71.41722
N         86.45570      132.83488       76.83853
C         86.18390      131.66935       77.68629
C         86.50317      130.34850       77.01082
O         87.16461      130.31986       75.98146
C         86.97934      131.72870       79.01191
C         86.59186      132.90883       79.91336
C         87.40306      132.87489       81.17761
O         88.61733      132.99593       81.13411
O         86.79603      132.69903       82.36520
H         87.12054      133.54082       77.19139
H         85.09544      131.67796       77.91990
H         88.06691      131.76873       78.77717
H         86.78737      130.80102       79.59610
H         85.51294      132.82948       80.16536
H         86.76195      133.88242       79.40957
N         85.97751      129.20294       77.52615
C         86.13981      127.91735       76.88816
H         85.71516      127.95338       75.86153
H         87.21373      127.64516       76.84262
H         85.59151      127.14145       77.46473
H         85.40032      129.25029       78.38043
Ca        84.25222      132.64880       84.09469
O         83.46772      133.07167       86.92119
H         83.61311      134.03935       86.76940
H         82.57019      132.89303       86.54270
O         85.35762      129.76801       82.49953
H         85.80997      128.92197       82.74288
H         85.10082      129.64602       81.55109
O         84.75636      134.96235       82.42352
H         85.60190      135.09975       82.91992
H         84.25375      135.80462       82.55241
O         86.24458      130.88990       85.87110
H         85.98137      130.01396       86.24987
H         85.87464      131.55417       86.50529
O         86.77199      134.00186       85.24236
H         87.54394      134.07824       84.62728
H         87.17772      133.86485       86.13467

Ca 1.0



