%chk=apoCaM-CA-Ng.loop4.water3.frame459.chk
%nprocshared=20
%mem=10GB
%nosave
#b3lyp/svp scf=(tight,noincore,xqc) Test 
#IOP(5/87=12) Density=Current Pop=(MK,readradii) iop(6/33=2) iop(6/42=6)

apoCaM-CA-Ng.loop4.water3.frame459 

   -3  1 
C         38.64543       53.14401       93.77355
C         37.92627       52.63597       94.98781
O         37.80368       51.42987       95.12182
H         39.67562       52.72768       93.75768
H         38.11043       52.81566       92.85782
H         38.71163       54.25159       93.77262
N         37.44670       53.49775       95.93246
C         36.77876       53.08329       97.16399
C         37.73958       52.24958       98.00409
O         37.54699       51.06152       98.16620
C         35.34090       52.53183       96.90539
C         35.24403       51.21942       96.18401
O         35.58850       50.09469       96.83137
O         34.82070       51.16591       95.04110
H         37.59464       54.50893       95.79433
H         36.57550       53.99985       97.76259
H         34.80727       53.30929       96.31488
H         34.79983       52.42530       97.87106
N         38.82472       52.87183       98.55341
C         39.89923       52.30888       99.38336
C         39.35281       51.69773      100.67706
O         39.48568       52.31931      101.72174
C         40.89685       51.37435       98.61451
C         42.35179       51.48829       99.15549
C         40.96237       51.71417       97.11498
C         42.54052       51.22395      100.64465
H         38.89693       53.88718       98.38104
H         40.49813       53.20661       99.66363
H         40.55661       50.32090       98.67857
H         42.74085       52.51141       98.94888
H         42.98848       50.76682       98.60034
H         39.98880       51.51610       96.62802
H         41.24566       52.77542       96.95441
H         41.71127       51.07351       96.60955
H         42.18811       50.20805      100.91281
H         43.62224       51.31061      100.88757
H         42.01227       51.98790      101.24835
N         38.70879       50.49279      100.67989
C         38.02500       49.93575      101.83856
C         38.96646       49.12056      102.73310
O         39.07052       49.50578      103.88937
C         36.73551       49.19995      101.40775
C         35.69945       50.10194      100.77981
O         35.91634       51.42311      100.62757
O         34.63650       49.62787      100.41179
H         38.63589       49.96337       99.80728
H         37.64889       50.77324      102.47159
H         36.26970       48.73079      102.30146
H         36.96917       48.42573      100.66294
N         39.72637       48.03979      102.36008
C         39.82624       47.43858      101.04101
C         38.65447       46.53843      100.69952
O         37.77940       46.36548      101.53653
H         40.36060       47.65003      103.07563
H         40.71561       46.77424      101.02940
H         40.00890       48.23792      100.30590
N         38.55305       45.88083       99.50293
C         39.55862       45.91228       98.43595
C         39.77231       47.32353       97.91106
O         38.87974       48.14328       98.06963
C         39.12669       44.95731       97.28204
C         37.89738       45.45405       96.55748
O         37.99025       46.49262       95.70078
O         36.81902       44.90964       96.72903
H         37.71977       45.28604       99.36909
H         40.49977       45.52785       98.88031
H         38.91784       43.96430       97.73656
H         39.92204       44.79973       96.52894
N         40.89323       47.71004       97.24197
C         42.06715       46.88508       97.01287
C         42.89863       46.70960       98.25459
O         42.56700       47.25708       99.29684
H         40.91491       48.67109       96.87900
H         42.73634       47.41059       96.30176
H         41.79311       45.91770       96.55649
N         44.05950       46.00114       98.17659
C         45.01472       45.90981       99.27332
C         46.28616       46.70090       98.96165
O         47.07755       46.89519       99.87334
C         45.21467       44.44256       99.71438
C         45.67520       43.44687       98.63465
C         47.06838       43.69838       98.14242
N         48.11471       43.66493       98.99808
O         47.25984       43.90183       96.95472
H         44.30027       45.56235       97.27494
H         44.59845       46.42797      100.16591
H         44.22470       44.07996      100.06882
H         45.90118       44.40744      100.58729
H         44.95750       43.44631       97.78677
H         45.66114       42.42663       99.07413
H         47.97558       43.47440      100.00025
H         49.07101       43.81696       98.65853
N         46.48611       47.28921       97.73969
C         47.48083       48.33285       97.49144
C         48.51991       47.96834       96.44152
O         49.37917       48.80612       96.19531
C         46.75050       49.65111       97.07365
C         45.85847       50.17158       98.20793
C         45.91548       49.50271       95.78203
H         45.84953       47.07300       96.96575
H         48.05591       48.54621       98.41963
H         47.52141       50.43126       96.88577
H         45.38950       51.13465       97.91207
H         45.05540       49.44320       98.44903
H         46.46583       50.35145       99.11992
H         45.48795       50.48473       95.48931
H         46.54495       49.14027       94.94247
H         45.06167       48.80621       95.91456
N         48.53834       46.77031       95.78991
C         49.53976       46.44540       94.77696
C         48.92422       46.11480       93.42623
O         49.69288       45.87523       92.50734
C         50.40819       45.25676       95.23974
C         51.12572       45.52288       96.53961
N         51.98028       46.56356       96.67018
O         50.94723       44.77415       97.48544
H         47.83442       46.05961       96.02253
H         50.21401       47.31085       94.60062
H         51.18012       45.04364       94.46834
H         49.76830       44.35195       95.34457
H         52.15971       47.20681       95.88697
H         52.46625       46.72610       97.56482
N         47.57248       46.08160       93.20843
C         47.01352       45.69692       91.90866
C         45.51213       45.91229       91.80975
O         44.85840       46.12752       92.81474
C         47.36627       44.21707       91.58247
C         47.07351       43.26212       92.73004
C         48.14325       42.61050       93.37278
C         45.76270       43.00945       93.17702
C         47.91174       41.73737       94.43829
C         45.53356       42.13391       94.24575
C         46.60484       41.49661       94.87992
O         46.36820       40.65771       95.90908
H         46.93318       46.33284       93.97267
H         47.44737       46.37180       91.13824
H         48.45007       44.16990       91.35742
H         46.85910       43.87289       90.65661
H         49.16405       42.78244       93.05522
H         44.91333       43.48015       92.70505
H         48.75043       41.25087       94.92061
H         44.52079       41.94961       94.58220
H         47.08308       40.19847       96.37335
N         44.92401       45.83360       90.57339
C         43.50651       45.97586       90.24122
C         42.99475       47.41240       90.33127
O         42.56972       47.93438       89.30920
C         42.64070       44.95182       91.00118
C         41.20409       44.90018       90.44952
C         40.37769       43.80941       91.07603
O         39.22422       43.64725       90.71175
O         40.89270       42.99515       92.01889
H         45.54164       45.61910       89.77608
H         43.42010       45.69923       89.16379
H         42.61972       45.17307       92.08922
H         43.10140       43.95015       90.85041
H         41.24131       44.70699       89.35466
H         40.70118       45.87601       90.62138
N         42.97417       48.11200       91.49999
C         42.41866       49.45783       91.61884
C         43.16629       50.49690       90.79274
O         42.67850       51.61639       90.70518
C         42.42294       49.92815       93.09248
C         41.73098       48.98754       94.09055
C         40.26746       48.78285       93.83362
O         39.88453       48.21105       92.82616
O         39.36940       49.18129       94.74987
H         43.31503       47.65861       92.34338
H         41.37153       49.42234       91.25045
H         41.94105       50.92871       93.16600
H         43.48067       50.03514       93.42451
H         41.86536       49.45099       95.08157
H         42.22138       47.99701       94.13323
N         44.35283       50.22938       90.17704
C         45.04214       51.22753       89.38962
H         45.98953       50.80754       88.99102
H         44.40358       51.54030       88.53608
H         45.27991       52.11175       90.01874
H         44.79816       49.30627       90.27019
Ca        36.84222       48.40665       96.03210
O         36.46841       49.47914       93.01267
H         36.86200       49.34206       92.11534
H         36.20148       50.43180       93.01746
O         34.66597       46.90240       94.47445
H         35.23883       46.12859       94.70479
H         34.95111       47.15687       93.56121
O         35.78154       47.14904       98.58355
H         35.05451       46.82457       97.99613
H         35.73606       48.13395       98.50989

Ca 1.0



