%chk=apoCaM-CA-Ng.loop3.water5.frame1085.chk
%nprocshared=20
%mem=10GB
%nosave
#b3lyp/svp scf=(tight,noincore,xqc) Test 
#IOP(5/87=12) Density=Current Pop=(MK,readradii) iop(6/33=2) iop(6/42=6)

apoCaM-CA-Ng.loop3.water5.frame1085 

   0  1 
C         49.92128       89.76311       19.57834
C         49.97673       91.00549       18.74118
O         48.97448       91.70154       18.65766
H         49.68095       90.03337       20.62767
H         49.13081       89.08968       19.18485
H         50.88889       89.21941       19.56255
N         51.12027       91.35285       18.08447
C         51.20872       92.54365       17.24750
C         50.20410       92.50957       16.10614
O         49.65163       93.55319       15.79638
C         52.65197       92.81200       16.75350
C         53.29584       91.74515       15.90320
O         54.55591       91.93271       15.46692
O         52.71394       90.71302       15.61486
H         51.95406       90.75542       18.19236
H         50.95660       93.42297       17.88352
H         53.29712       92.95514       17.64764
H         52.65760       93.76324       16.17713
N         49.82824       91.33761       15.51685
C         48.80932       91.26929       14.47346
C         49.37383       91.77195       13.15909
O         50.29008       91.16275       12.62406
C         48.28025       89.82743       14.33792
C         47.49012       89.43789       15.60423
C         47.09739       87.95835       15.67459
C         46.23519       87.48029       14.49968
N         45.84295       86.08414       14.69264
H         50.23585       90.45740       15.86520
H         47.94104       91.89945       14.77166
H         49.13582       89.13540       14.17404
H         47.59726       89.76020       13.46326
H         46.57788       90.07256       15.66525
H         48.10245       89.63910       16.50889
H         46.52903       87.81246       16.61972
H         48.02019       87.34111       15.72570
H         46.81158       87.56528       13.55291
H         45.32227       88.11060       14.41874
H         45.28710       85.76408       13.86748
H         46.69206       85.47980       14.78477
H         45.25468       85.99420       15.55313
N         48.88404       92.91708       12.60606
C         49.41244       93.51910       11.38335
C         50.45072       94.59267       11.68619
O         51.00703       95.14994       10.74969
C         48.25503       94.06386       10.50917
C         47.44696       95.17596       11.14117
O         46.49944       95.64904       10.53471
O         47.74709       95.65083       12.36553
H         48.16794       93.42985       13.13860
H         49.94066       92.74282       10.78685
H         47.56647       93.22341       10.27516
H         48.66936       94.44367        9.54992
N         50.77521       94.92712       12.96845
C         51.75963       95.93043       13.31944
C         53.17130       95.54892       12.92154
O         53.37505       94.46828       12.38644
H         50.28691       94.48141       13.74698
H         51.74225       96.07163       14.42211
H         51.48157       96.88483       12.82735
N         54.22323       96.39829       13.11382
C         54.11309       97.71737       13.72870
C         55.18312       97.85001       14.81679
O         56.35564       97.74727       14.48503
C         54.21825       98.77771       12.61392
C         53.88353      100.19054       13.03534
N         53.78967      101.16130       12.09887
O         53.66473      100.46581       14.20388
H         55.14791       96.11000       12.75566
H         53.10642       97.85572       14.15400
H         53.46123       98.50315       11.84518
H         55.21990       98.74816       12.13530
H         53.94657      100.94716       11.10328
H         53.53617      102.12390       12.36678
N         54.89217       98.04717       16.13933
C         53.53354       98.21935       16.61808
C         53.38878       98.41300       18.10961
O         54.32488       98.22815       18.87289
H         55.67579       98.09578       16.80898
H         52.91530       97.33724       16.34576
H         53.11547       99.12295       16.13660
N         52.16069       98.79095       18.56286
C         51.76172       98.96374       19.96463
C         50.28497       99.39543       20.02399
O         49.71770       99.73357       18.99220
C         52.64277      100.03319       20.67904
C         52.44853      100.05741       22.17917
C         51.92626      101.19058       22.82696
C         52.80354       98.93443       22.94793
C         51.75131      101.19195       24.21625
C         52.63019       98.93934       24.33446
C         52.09944      100.06777       24.97367
O         51.91979      100.08241       26.31024
H         51.45775       98.92713       17.82292
H         51.88200       97.97382       20.45428
H         52.42605      101.02718       20.22829
H         53.72169       99.83962       20.52475
H         51.64620      102.06876       22.25981
H         53.21858       98.05424       22.47337
H         51.33910      102.06576       24.70514
H         52.90859       98.06518       24.91000
H         52.14408       99.32352       26.86819
N         49.58669       99.43904       21.19527
C         48.21555       99.96189       21.23328
C         48.18375      101.42646       20.80150
O         49.23642      102.03362       20.65053
C         47.53117       99.76505       22.61839
C         47.28580       98.25780       22.87183
C         48.31789      100.43694       23.76175
C         46.48628       97.97563       24.14356
H         50.03481       99.09061       22.05101
H         47.61755       99.40022       20.48002
H         46.53104      100.24841       22.56969
H         48.24675       97.70242       22.91524
H         46.69310       97.85556       22.01999
H         48.50194      101.50772       23.53599
H         47.74616      100.39790       24.71005
H         49.28788       99.93280       23.93558
H         46.27858       96.88724       24.21279
H         47.05649       98.27035       25.04730
H         45.51828       98.52029       24.11962
N         46.99346      102.03931       20.53173
C         46.90212      103.40086       20.01022
C         46.27576      103.40204       18.62661
O         45.67197      102.41202       18.23727
C         46.10700      104.28664       20.97628
O         44.80729      103.78319       21.13320
H         46.11978      101.50479       20.65496
H         47.91983      103.83537       19.90405
H         46.05846      105.32610       20.58374
H         46.63488      104.28893       21.95737
H         44.41691      104.25631       21.91307
N         46.43166      104.48849       17.81003
C         45.93100      104.58518       16.43896
C         44.41601      104.69918       16.35123
O         43.91112      104.71701       15.23702
C         46.46151      103.42685       15.57189
H         46.98681      105.28384       18.16096
H         46.33272      105.52090       15.99076
H         46.05160      102.44612       15.88365
H         46.17352      103.57736       14.50963
H         47.57011      103.38818       15.62430
N         43.62359      104.81274       17.46126
C         42.16781      104.90298       17.41603
C         41.61192      103.64719       16.78197
O         40.91072      103.71199       15.78086
C         41.70686      106.19435       16.71889
H         44.05256      104.82287       18.39646
H         41.78654      104.94855       18.46058
H         42.01797      106.22942       15.65514
H         40.59904      106.26867       16.75642
H         42.13360      107.07608       17.24182
N         41.94342      102.44482       17.32441
C         41.56042      101.16468       16.75611
C         40.73768      100.38822       17.76263
O         39.60897      100.03741       17.44744
C         42.84089      100.43079       16.32033
C         42.55129       99.08147       15.65290
C         43.81137       98.49312       15.09471
O         44.26594       97.30920       15.54562
O         44.42223       99.08282       14.21739
H         42.54252      102.43873       18.16484
H         40.94336      101.30907       15.84028
H         43.52439      100.27958       17.18538
H         43.35926      101.08943       15.58666
H         41.83155       99.21353       14.81681
H         42.10971       98.38648       16.39911
N         41.22906      100.10283       19.00192
C         40.47313       99.39095       20.01311
H         39.46833       99.08222       19.65492
H         41.03072       98.48180       20.31846
H         40.33887      100.04683       20.89893
H         42.17736      100.41545       19.25662
Ca        46.47037       97.20754       13.37300
O         47.22881       95.85870       16.12503
H         48.14956       95.79620       16.48312
H         46.77159       96.49570       16.72966
O         44.41302       94.99983       13.29395
H         44.26720       94.58987       14.18330
H         43.55775       95.45296       13.08501
O         47.26065       99.88177       14.64484
H         47.29255      100.27355       15.55313
H         47.14102      100.65615       14.03954
O         49.22903       98.10854       12.95879
H         49.53976       98.38870       13.85606
H         49.51980       98.83380       12.35181
O         46.48926       99.16703       11.15162
H         46.11932       98.83532       10.29529
H         46.36771      100.14872       11.11469

Ca 1.0



