%chk=apoCaM-CA-Ng.loop4.water5.frame553.chk
%nprocshared=20
%mem=10GB
%nosave
#b3lyp/svp scf=(tight,noincore,xqc) Test 
#IOP(5/87=12) Density=Current Pop=(MK,readradii) iop(6/33=2) iop(6/42=6)

apoCaM-CA-Ng.loop4.water5.frame553 

   -3  1 
C         53.03767       23.18855       59.68560
C         52.13445       22.05050       59.31870
O         52.15743       21.03256       59.99071
H         53.71802       23.41251       58.83753
H         52.42582       24.08730       59.91148
H         53.64717       22.93706       60.57949
N         51.29950       22.17022       58.24720
C         50.36821       21.15135       57.75385
C         49.16982       20.90313       58.66656
O         48.25599       20.21714       58.22751
C         51.09031       19.83247       57.40512
C         52.29300       20.08594       56.54613
O         53.51878       19.80633       57.02849
O         52.17187       20.58757       55.44025
H         51.34663       23.04803       57.70633
H         49.93772       21.55896       56.81054
H         50.39865       19.13321       56.88708
H         51.42568       19.33705       58.33437
N         49.07123       21.43206       59.92287
C         47.86847       21.29268       60.74229
C         46.71838       22.05923       60.09781
O         46.98973       22.99092       59.35185
C         48.08947       21.79050       62.21321
C         48.60353       23.25981       62.29018
C         49.01847       20.81587       62.95604
C         48.62934       23.83006       63.70844
H         49.85794       21.95790       60.30263
H         47.61630       20.21522       60.77835
H         47.11238       21.75288       62.73589
H         47.93488       23.91432       61.69346
H         49.63034       23.35148       61.88194
H         48.58595       19.79428       62.92158
H         50.02826       20.79512       62.49694
H         49.11120       21.07954       64.02807
H         47.60979       23.81439       64.14673
H         49.32554       23.26915       64.36324
H         48.98330       24.88251       63.67080
N         45.40183       21.78597       60.33513
C         44.88397       20.65613       61.10684
C         45.18682       19.35209       60.39120
O         45.75005       18.44752       60.99183
C         43.35357       20.77982       61.27544
C         42.97888       22.03846       62.00981
O         42.26049       22.86936       61.47696
O         43.43184       22.25442       63.25971
H         44.71421       22.41964       59.89621
H         45.31499       20.64377       62.12904
H         42.97416       19.91248       61.85880
H         42.85700       20.77092       60.27977
N         44.84455       19.20683       59.08076
C         45.07002       18.00180       58.30572
C         44.15804       16.88581       58.74968
O         42.95321       17.09306       58.79511
H         44.42047       20.00776       58.58883
H         46.14448       17.71469       58.33578
H         44.81075       18.21823       57.24730
N         44.65531       15.64937       59.03362
C         43.79994       14.51373       59.37602
C         43.18420       14.60403       60.77268
O         42.46097       13.68520       61.13354
C         44.53178       13.17213       59.10406
C         45.84536       12.97216       59.81077
O         46.87229       12.85843       59.16025
O         45.90052       12.85132       61.14520
H         45.66759       15.49476       58.91085
H         42.94592       14.49055       58.66157
H         44.73101       13.13223       58.00990
H         43.85940       12.31908       59.34204
N         43.36255       15.68088       61.59896
C         42.72381       15.77508       62.90574
C         43.31762       14.83063       63.93221
O         42.81397       14.78817       65.04473
H         43.92653       16.48451       61.29536
H         41.63268       15.59909       62.79095
H         42.86023       16.80391       63.30675
N         44.43406       14.10128       63.65293
C         45.16842       13.28078       64.60386
C         45.68524       14.15751       65.72907
O         45.54375       13.82897       66.89856
C         44.36548       12.03887       65.05103
C         44.04450       11.12976       63.84694
C         43.33198        9.85272       64.22319
N         43.03058        8.94683       63.26366
O         43.03114        9.62225       65.38563
H         44.86365       14.19663       62.73047
H         46.08022       12.90732       64.08462
H         43.42663       12.34115       65.56250
H         44.98549       11.45759       65.76841
H         44.99803       10.84861       63.34902
H         43.41395       11.68168       63.11685
H         43.28243        9.12041       62.27917
H         42.55122        8.06631       63.50392
N         46.29511       15.33119       65.39881
C         46.88478       16.26927       66.34436
C         48.31313       16.62439       65.94742
O         48.89612       17.46024       66.62595
C         46.04659       17.58364       66.40323
C         45.91525       18.27770       65.03240
C         44.66101       17.33598       67.00668
H         46.32014       15.59197       64.40160
H         46.91184       15.83573       67.36899
H         46.56313       18.28929       67.09223
H         45.38121       19.24448       65.14496
H         46.91500       18.49315       64.59974
H         45.34278       17.65235       64.31583
H         44.76207       16.89456       68.02140
H         44.11369       18.29796       67.10497
H         44.06670       16.65075       66.37177
N         48.93490       16.08093       64.85587
C         50.20901       16.57947       64.35477
C         51.29844       15.53859       64.57759
O         50.99991       14.44072       65.02971
C         50.01500       16.94308       62.85939
C         51.03671       17.86727       62.24020
N         51.05111       18.04037       60.90178
O         51.82384       18.49729       62.92872
H         48.49172       15.31854       64.32321
H         50.49208       17.49422       64.91835
H         49.03975       17.45887       62.72332
H         49.96239       15.99339       62.28298
H         50.38692       17.54041       60.29349
H         51.74809       18.66211       60.47478
N         52.60331       15.85165       64.35388
C         53.71825       14.95592       64.64929
C         55.04912       15.69750       64.57677
O         55.07027       16.86626       64.21094
C         53.71910       13.71169       63.71921
C         54.20102       13.96054       62.30003
C         53.55712       14.86718       61.43845
C         55.31896       13.24954       61.82275
C         54.02687       15.05723       60.13154
C         55.77914       13.43425       60.51785
C         55.13707       14.33625       59.66695
O         55.59749       14.50031       58.40978
H         52.80615       16.80223       64.04681
H         53.58911       14.61451       65.70012
H         52.71085       13.25205       63.68656
H         54.38374       12.95373       64.18631
H         52.69468       15.42697       61.76907
H         55.83517       12.54048       62.45801
H         53.52570       15.76076       59.47855
H         56.63690       12.87270       60.16798
H         55.18805       15.11450       57.78453
N         56.21504       15.07314       64.89839
C         57.50493       15.73368       64.75780
C         58.28906       14.99218       63.69600
O         58.71309       13.87668       63.96474
C         58.25712       15.78357       66.09999
C         57.48066       16.58336       67.15827
C         58.23748       16.64183       68.45370
O         57.69667       16.12855       69.57525
O         59.33980       17.16464       68.50028
H         56.19372       14.08993       65.20964
H         57.36881       16.78057       64.44393
H         59.24496       16.26791       65.93413
H         58.42667       14.74979       66.47481
H         56.49353       16.10445       67.33793
H         57.30796       17.62086       66.79805
N         58.45690       15.46558       62.42510
C         57.90027       16.71464       61.90837
C         58.64605       17.91603       62.45605
O         59.85734       17.98921       62.29852
C         57.95674       16.70982       60.36820
C         57.27243       17.93921       59.75200
C         57.22204       17.81291       58.25867
O         58.36134       17.67965       57.55436
O         56.14872       17.82012       57.67700
H         58.93996       14.84172       61.75870
H         56.81809       16.75866       62.16387
H         57.42066       15.80497       60.01648
H         59.01016       16.64397       60.01732
H         57.83318       18.85972       60.02010
H         56.23532       18.02967       60.14600
N         57.97236       18.92221       63.07857
C         58.64283       20.10188       63.57913
H         59.16210       20.62424       62.74693
H         57.90131       20.79888       64.02448
H         59.38082       19.81773       64.35842
H         56.94824       18.86229       63.18438
Ca        55.37348       20.45223       55.92585
O         58.76404       19.84515       55.58284
H         59.25747       19.31238       54.91017
H         57.86890       19.42444       55.61712
O         57.19341       21.23347       58.44511
H         56.66533       21.12397       59.27560
H         57.70488       22.06973       58.58386
O         56.94675       21.05609       53.43194
H         56.87332       21.99777       53.13618
H         57.49660       20.61599       52.73644
O         55.40422       18.11941       54.10459
H         55.55195       17.20455       54.45261
H         56.04182       18.20736       53.35233
O         54.24621       22.70725       54.08131
H         53.72112       22.20346       53.40972
H         53.62867       22.82188       54.84670

Ca 1.0



