%chk=apoCaM-CA-Ng.loop1.water5.frame549.chk
%nprocshared=20
%mem=10GB
%nosave
#b3lyp/svp scf=(tight,noincore,xqc) Test 
#IOP(5/87=12) Density=Current Pop=(MK,readradii) iop(6/33=2) iop(6/42=6)

apoCaM-CA-Ng.loop1.water5.frame549 

   0  1 
C         76.87664       40.73913       47.18181
C         75.38632       40.60606       47.30228
O         74.81307       41.20067       48.20325
H         77.36227       40.36682       48.10737
H         77.26804       40.15933       46.31903
H         77.14154       41.80722       47.03375
N         74.68816       39.85014       46.40729
C         73.23861       39.68529       46.41548
C         72.55539       41.03291       46.25920
O         71.70314       41.36859       47.06328
C         72.76065       38.92162       47.67485
C         73.39782       37.56612       47.78499
O         74.14649       37.25883       48.86140
O         73.22868       36.73272       46.90921
H         75.20665       39.37791       45.65066
H         72.95825       39.07612       45.52673
H         71.65822       38.78375       47.62928
H         72.99124       39.50755       48.58986
N         72.90265       41.84523       45.21877
C         72.35659       43.16638       44.90872
C         72.65373       44.22022       45.97447
O         73.46094       45.09957       45.70632
C         70.84746       43.11152       44.57391
C         70.31853       44.48367       44.11230
C         68.79577       44.47111       43.93985
C         68.23614       45.81237       43.42956
N         68.51036       46.92853       44.33957
H         73.62628       41.49476       44.57148
H         72.87822       43.49885       43.98063
H         70.27746       42.78224       45.46627
H         70.67086       42.36604       43.76825
H         70.81378       44.76470       43.15706
H         70.56425       45.24518       44.87758
H         68.32070       44.22644       44.91579
H         68.51951       43.68094       43.20902
H         67.13457       45.70155       43.32126
H         68.65838       46.03910       42.42599
H         68.15702       46.71328       45.30002
H         69.53285       47.14034       44.37199
H         68.02200       47.78194       43.98405
N         71.94730       44.27367       47.14271
C         72.02150       45.37361       48.08922
C         72.41987       44.83875       49.47022
O         71.68660       43.99498       49.96808
C         70.60733       46.02389       48.15207
C         70.57116       47.24311       49.02075
O         69.42001       47.86258       49.34659
O         71.60989       47.69388       49.46795
H         71.23581       43.56420       47.34385
H         72.72314       46.14136       47.72224
H         69.88858       45.27717       48.55699
H         70.26278       46.31457       47.13709
N         73.51379       45.23752       50.19635
C         74.55158       46.18632       49.81236
C         74.67434       47.36311       50.77467
O         75.73709       47.96375       50.80362
H         73.64310       44.79952       51.12285
H         74.45489       46.58461       48.78829
H         75.51254       45.62818       49.83272
N         73.62274       47.77703       51.54578
C         73.64004       48.94496       52.45580
C         72.26897       49.18602       53.19232
O         71.33592       48.25210       52.76606
C         74.04884       50.25333       51.73518
C         73.12248       50.65039       50.61882
O         71.85245       51.00404       50.88276
O         73.53417       50.70581       49.47115
H         72.77386       47.21104       51.46480
H         74.42120       48.74773       53.22379
H         75.07293       50.15297       51.32778
H         74.09244       51.08404       52.47196
N         72.45379       49.13815       54.65288
C         71.21669       49.09289       55.45909
C         71.03214       47.69837       56.01856
O         71.19951       47.51358       57.21589
H         72.98847       50.00179       54.90602
H         70.32230       49.44042       54.89916
H         71.34296       49.78460       56.32328
N         70.70170       46.66570       55.19614
C         70.66867       45.25074       55.56233
C         70.13340       44.40050       54.40707
O         70.03647       44.88266       53.28440
C         72.10184       44.73498       55.90725
C         73.09330       45.01205       54.75617
O         72.57496       45.33731       57.08156
H         70.44602       46.90856       54.24216
H         69.97327       45.12367       56.42157
H         72.04183       43.63634       56.08325
H         73.38041       44.83047       57.36579
H         72.76470       44.52586       53.81431
H         73.18925       46.10423       54.57207
H         74.09852       44.61777       55.01194
N         69.78698       43.10050       54.61044
C         69.35796       42.21731       53.52734
C         67.88114       41.84969       53.61618
O         67.39842       41.20946       52.69494
C         70.29520       40.97795       53.42391
C         70.27329       40.11537       54.71464
C         71.72209       41.44540       53.07229
C         71.07401       38.81743       54.59588
H         69.83120       42.73021       55.57234
H         69.43086       42.75004       52.55258
H         69.93240       40.35339       52.57751
H         69.22269       39.83559       54.94317
H         70.67832       40.68619       55.57629
H         71.70607       42.05705       52.14493
H         72.15306       42.05752       53.89233
H         72.39508       40.58758       52.87723
H         70.68610       38.20041       53.75856
H         72.15321       39.01818       54.43982
H         70.97757       38.23950       55.53919
N         67.08834       42.26071       54.65131
C         65.64233       42.05844       54.68143
C         65.27960       41.13224       55.81728
O         65.70082       41.35986       56.94232
C         64.91741       43.41513       54.83585
C         65.23183       44.34951       53.66526
O         63.52603       43.21242       54.86927
H         67.50291       42.77153       55.44231
H         65.27827       41.60614       53.73269
H         65.25246       43.92566       55.77013
H         63.27391       43.05174       55.81616
H         66.31906       44.56530       53.61585
H         64.91130       43.88871       52.70592
H         64.69025       45.31031       53.79524
N         64.45152       40.07451       55.58298
C         64.04729       39.13863       56.61808
C         63.95106       37.74086       56.03034
O         64.66905       36.86618       56.49580
C         62.74290       39.61720       57.30784
C         62.34411       38.69520       58.46819
O         61.68985       39.70725       56.38416
H         64.04406       39.96726       54.64220
H         64.82618       39.11762       57.41484
H         62.95080       40.63030       57.72690
H         61.00593       40.30727       56.78260
H         61.43982       39.09374       58.97534
H         62.11939       37.67105       58.10235
H         63.16493       38.64103       59.21509
N         63.07077       37.45189       55.02411
C         62.87279       36.10721       54.50229
C         63.05173       36.06948       52.99539
O         62.39267       36.82783       52.29579
C         61.46008       35.63168       54.88488
C         61.29940       34.12385       54.64012
C         59.93648       33.62037       55.12159
C         59.87832       32.08816       55.06296
N         58.59116       31.59355       55.54735
H         62.46816       38.19879       54.64854
H         63.58781       35.40372       54.98157
H         60.68366       36.21712       54.34290
H         61.32435       35.80603       55.97538
H         62.09165       33.60145       55.22100
H         61.43032       33.87961       53.56305
H         59.13227       34.06501       54.49508
H         59.78195       33.93289       56.17755
H         60.68853       31.67060       55.70318
H         60.04250       31.73964       54.01938
H         58.42590       31.91913       56.52781
H         57.82126       31.93296       54.92678
H         58.60246       30.54808       55.53797
N         63.87602       35.14717       52.42236
C         63.99776       34.98517       50.97856
C         64.61699       36.22063       50.32588
O         63.95623       36.78840       49.46784
C         64.72343       33.66190       50.63879
C         64.77645       33.38888       49.12818
C         65.41494       32.05755       48.85102
O         64.86050       30.92805       49.33264
O         66.43299       31.99092       48.18104
H         64.37721       34.48760       53.03746
H         62.96995       34.85307       50.56592
H         64.15460       32.83646       51.12290
H         65.74442       33.63222       51.05473
H         65.35722       34.19169       48.62400
H         63.74725       33.37980       48.70852
N         65.83848       36.74198       50.64734
C         66.72952       36.22659       51.66412
H         67.62505       36.87959       51.73726
H         66.23033       36.22222       52.65395
H         67.09512       35.21964       51.40014
H         66.14821       37.58957       50.14602
Ca        69.92638       49.05660       51.17854
O         67.80574       46.68739       52.09717
H         68.42544       46.10150       51.59453
H         67.92228       46.42534       53.04477
O         68.61771       51.67294       51.88208
H         67.96545       52.04702       52.52580
H         69.16991       52.44665       51.60566
O         68.95170       50.81866       48.87573
H         68.50657       50.78272       47.99242
H         69.90774       50.97155       48.66811
O         67.84037       49.32042       53.80542
H         67.39490       48.59446       54.30969
H         67.88536       50.07471       54.44508
O         66.61724       49.25215       50.81104
H         65.98837       48.82774       51.44746
H         66.29918       48.96477       49.91857

Ca 1.0



