%chk=apoCaM-CA-Ng.loop1.water3.frame1178.chk
%nprocshared=20
%mem=10GB
%nosave
#b3lyp/svp scf=(tight,noincore,xqc) Test 
#IOP(5/87=12) Density=Current Pop=(MK,readradii) iop(6/33=2) iop(6/42=6)

apoCaM-CA-Ng.loop1.water3.frame1178 

   0  1 
C        110.18682       36.35626        7.81214
C        111.26850       37.23237        8.36721
O        110.96483       38.31460        8.84376
H        109.19749       36.85725        7.88427
H        110.39652       36.13709        6.74390
H        110.15092       35.40559        8.38314
N        112.56308       36.80515        8.34778
C        113.70120       37.58241        8.83438
C        114.16438       38.55649        7.75527
O        115.23313       38.38663        7.18372
C        114.84367       36.64310        9.28393
C        114.43181       35.76768       10.43922
O        113.53354       34.95094       10.31206
O        115.06379       35.87692       11.62354
H        112.74741       35.86259        7.97018
H        113.42294       38.16061        9.74451
H        115.70035       37.27002        9.61824
H        115.18617       36.00674        8.43972
N        113.39747       39.64069        7.46796
C        113.70580       40.64662        6.45925
C        114.16690       41.94906        7.11683
O        115.26626       42.36638        6.77927
C        112.52224       40.86004        5.48852
C        112.04516       39.54076        4.86008
C        110.87505       39.77886        3.89771
C        110.32735       38.45111        3.35683
N        109.18825       38.67836        2.46791
H        112.55419       39.75630        8.02131
H        114.55100       40.28781        5.82719
H        112.84439       41.55931        4.68532
H        111.65978       41.32360        6.00109
H        111.70060       38.86213        5.67076
H        112.88329       39.05179        4.31690
H        111.21239       40.41920        3.05299
H        110.05787       40.30363        4.43949
H        109.99905       37.81492        4.20949
H        111.12715       37.91080        2.80340
H        108.82553       37.75649        2.13341
H        108.42363       39.17328        2.98267
H        109.48353       39.24781        1.64201
N        113.49215       42.64767        8.08882
C        112.22264       42.28338        8.71867
C        112.46971       41.55851       10.02550
O        113.61139       41.45297       10.45067
C        111.28598       43.49825        8.86781
C        111.89695       44.71610        9.50982
O        112.41689       44.69198       10.75989
O        111.90717       45.75923        8.87632
H        113.99531       43.44996        8.50065
H        111.65947       41.58000        8.09882
H        110.38328       43.20659        9.44187
H        110.95055       43.78470        7.84651
N        111.44016       40.93517       10.67125
C        111.65355       40.15387       11.87768
C        112.01862       41.04022       13.03087
O        111.80981       42.23877       12.93954
H        110.49135       40.96933       10.27001
H        112.45335       39.40813       11.68380
H        110.72868       39.60580       12.15875
N        112.59334       40.52409       14.15173
C        112.96599       41.36915       15.28418
C        112.62540       40.63521       16.59895
O        112.38580       39.43670       16.53591
C        114.46679       41.72132       15.11923
C        114.82782       43.12024       15.54158
O        114.33502       44.21644       14.90882
O        115.64595       43.28013       16.43303
H        112.85583       39.52579       14.14999
H        112.37278       42.30178       15.21120
H        114.74025       41.68696       14.04842
H        115.09033       40.94700       15.61948
N        112.56162       41.21609       17.83431
C        112.72472       42.62353       18.12261
C        111.62359       43.47865       17.53938
O        110.66492       42.96873       16.97539
H        112.36754       40.60375       18.64312
H        113.70938       42.95616       17.78289
H        112.70810       42.77730       19.22364
N        111.71809       44.82826       17.66588
C        110.72059       45.77702       17.17871
C        110.47708       45.62755       15.68272
O        111.42110       45.43488       14.93399
C        111.15203       47.22191       17.53755
C        110.11641       48.26750       17.11753
O        112.38028       47.53878       16.93506
H        112.55331       45.19396       18.14850
H        109.76461       45.58238       17.71445
H        111.23878       47.29035       18.64920
H        113.09475       47.38522       17.60707
H        110.45133       49.27447       17.44369
H        109.99704       48.28541       16.01331
H        109.13451       48.04856       17.58749
N        109.20579       45.75046       15.19674
C        108.79110       45.62500       13.80074
C        109.47019       46.64653       12.88458
O        110.66392       46.55327       12.63735
C        108.96549       44.16688       13.27398
C        108.13393       43.18207       14.14139
C        108.53686       44.06444       11.79048
C        108.40461       41.70617       13.83797
H        108.45342       45.95277       15.87315
H        107.69592       45.82654       13.77601
H        110.03735       43.90293       13.34830
H        107.04930       43.39161       14.00652
H        108.37870       43.32779       15.21412
H        108.69364       43.04542       11.38724
H        107.46540       44.33629       11.67343
H        109.13972       44.74071       11.15024
H        109.46773       41.46968       14.04152
H        107.77808       41.07324       14.50080
H        108.15966       41.43752       12.79167
N        108.71057       47.58987       12.25800
C        109.15799       48.33113       11.07795
C        109.80396       49.68099       11.37468
O        110.06884       50.39970       10.41997
C        107.97564       48.47450       10.07289
C        106.85271       49.40393       10.55635
O        107.42620       47.21023        9.79787
H        107.70369       47.58605       12.47042
H        109.91410       47.72258       10.53182
H        108.35583       48.91992        9.12357
H        108.05529       46.74593        9.18592
H        106.06516       49.46446        9.77519
H        106.37636       49.03738       11.48725
H        107.24037       50.42872       10.73277
N        110.13075       50.08749       12.63609
C        110.72261       51.39822       12.91155
C        112.18188       51.27394       13.29128
O        112.50053       50.64458       14.29028
C        109.95375       52.15778       14.02248
C        108.61191       52.71485       13.53322
O        109.79762       51.36656       15.17715
H        109.99538       49.43582       13.42200
H        110.69028       52.04123       12.00559
H        110.54792       53.05477       14.30900
H        109.01915       50.76503       15.03746
H        108.12152       53.27505       14.35818
H        108.78939       53.42473       12.69593
H        107.93994       51.90419       13.18590
N        113.12263       51.92461       12.53894
C        114.53493       52.01749       12.87678
C        115.17966       50.65349       12.84275
O        115.65014       50.16183       13.85957
C        114.73598       52.80659       14.19083
C        114.13556       54.21771       14.04602
C        114.36804       55.08814       15.28160
C        113.73147       56.47198       15.07729
N        113.95753       57.33460       16.23478
H        112.82202       52.43783       11.69630
H        115.05338       52.61621       12.09253
H        115.82723       52.89844       14.38711
H        114.27050       52.28300       15.05201
H        113.04089       54.13552       13.86893
H        114.59879       54.72145       13.16809
H        115.46121       55.20322       15.44960
H        113.91456       54.60041       16.17164
H        112.63608       56.35502       14.91574
H        114.16667       56.95491       14.17340
H        113.54392       56.90207       17.09224
H        114.98304       57.48695       16.37200
H        113.49796       58.25859       16.06516
N        115.28077       50.01769       11.64098
C        115.94766       48.73949       11.44808
C        115.03708       47.69960       10.79652
O        114.86922       46.65989       11.41578
C        117.26216       48.91910       10.66701
C        118.23561       49.84347       11.41321
C        119.54457       49.94587       10.68796
O        120.68135       49.55191       11.29279
O        119.58780       50.39294        9.55280
H        114.93199       50.51866       10.81738
H        116.25062       48.32389       12.43515
H        117.08341       49.33948        9.66312
H        117.73925       47.91997       10.55255
H        118.41737       49.44024       12.43345
H        117.79973       50.86134       11.50854
N        114.42183       47.80999        9.57894
C        114.42899       48.94063        8.67501
H        115.44755       49.18279        8.33037
H        113.83886       48.68523        7.76858
H        113.92343       49.81403        9.12398
H        113.88102       46.99753        9.26147
Ca       113.26780       44.51949       12.88800
O        116.42162       45.76718       13.67075
H        116.86964       46.55721       14.06333
H        116.85652       44.99146       14.10501
O        113.58140       47.37439       13.77226
H        113.50801       47.38253       14.75630
H        113.49506       48.32251       13.50673
O        115.74201       43.17142       11.99156
H        116.14105       42.68260       11.23101
H        114.85774       42.74718       12.10543

Ca 1.0



