%chk=apoCaM-CA-Ng.loop2.water3.frame148.chk
%nprocshared=20
%mem=10GB
%nosave
#b3lyp/svp scf=(tight,noincore,xqc) Test 
#IOP(5/87=12) Density=Current Pop=(MK,readradii) iop(6/33=2) iop(6/42=6)

apoCaM-CA-Ng.loop2.water3.frame148 

   -2  1 
C         60.92715       54.96132       64.75663
C         61.78353       55.06669       63.53111
O         62.83336       54.44200       63.47818
H         59.93039       54.55934       64.47754
H         61.39013       54.28401       65.50554
H         60.80083       55.96660       65.21063
N         61.38348       55.85469       62.49570
C         62.13825       56.01405       61.26021
C         62.58677       57.46183       61.07447
O         63.10509       57.77508       60.01460
C         61.26299       55.52098       60.08946
C         62.03699       55.42042       58.80157
O         63.10996       54.60871       58.72216
O         61.69294       56.06200       57.82227
H         60.49112       56.36700       62.58346
H         63.05459       55.38321       61.27770
H         60.38384       56.19225       59.97015
H         60.89215       54.49937       60.32161
N         62.46386       58.39146       62.07220
C         62.93413       59.76874       61.97498
C         64.44891       59.79873       61.76409
O         65.14909       59.20884       62.57534
C         62.10491       60.54347       60.93622
H         62.05104       58.12016       62.97563
H         62.74182       60.26327       62.95384
H         62.39019       61.61706       60.93552
H         62.23713       60.13409       59.91339
H         61.02722       60.48206       61.19823
N         65.03467       60.47362       60.72932
C         66.48415       60.54821       60.53127
C         67.12744       59.23640       60.06683
O         68.33163       59.23501       59.85055
C         66.83012       61.71680       59.57426
C         66.28640       61.60099       58.17287
O         66.49513       62.50310       57.37755
O         65.56799       60.53057       57.78162
H         64.43861       61.01801       60.09255
H         66.95167       60.82439       61.49899
H         67.93516       61.82520       59.51479
H         66.42851       62.65286       60.02219
N         66.41373       58.08332       59.90830
C         66.98886       56.82394       59.46354
C         68.11235       56.38064       60.36751
O         69.22489       56.22603       59.88330
H         65.41413       58.07830       60.10982
H         67.36340       56.94206       58.42294
H         66.19743       56.04165       59.45298
N         67.90091       56.16775       61.69761
C         68.99025       55.87377       62.62481
C         69.13954       54.37901       62.84577
O         68.23167       53.73888       63.35718
C         68.77775       56.61877       63.95605
C         68.78855       58.11465       63.75713
N         69.90217       58.74520       63.31452
O         67.78574       58.76472       64.00542
H         66.94835       56.29865       62.07395
H         69.94594       56.24512       62.19627
H         69.58598       56.35820       64.67308
H         67.80813       56.29923       64.40070
H         70.76430       58.21851       63.11259
H         69.90840       59.76710       63.18312
N         70.29430       53.76311       62.46011
C         70.57521       52.34646       62.61915
C         70.81910       51.95199       64.05853
O         71.40516       52.72789       64.80095
H         71.02231       54.32578       61.99369
H         71.52979       52.13342       62.09078
H         69.79232       51.72520       62.13319
N         70.51721       50.68846       64.48040
C         70.85872       50.19337       65.81910
C         69.97563       50.79558       66.91360
O         70.20940       50.51137       68.08114
C         70.81431       48.63769       65.87293
C         69.40533       48.03215       65.75775
O         71.67895       48.08833       64.90728
H         70.10197       50.04408       63.79262
H         71.91818       50.47040       66.01899
H         71.20143       48.31693       66.86506
H         71.22034       48.10394       64.02726
H         68.79180       48.35255       66.61848
H         68.90248       48.32892       64.81446
H         69.46851       46.92436       65.79562
N         68.92566       51.60529       66.60541
C         67.98892       52.17806       67.56566
C         68.05249       53.69420       67.50056
O         68.86070       54.23570       66.75425
C         66.53627       51.68191       67.24830
C         66.14049       51.95930       65.77171
C         66.37761       50.20198       67.61512
C         64.63982       51.86924       65.51878
H         68.75534       51.83773       65.61972
H         68.24143       51.89430       68.61215
H         65.82516       52.21641       67.90394
H         66.67019       51.25197       65.09608
H         66.43576       52.99270       65.49127
H         66.64350       50.04672       68.68372
H         65.33051       49.86514       67.48313
H         67.03035       49.57549       66.98579
H         64.44167       52.07522       64.44561
H         64.24023       50.86632       65.76308
H         64.11575       52.63877       66.12551
N         67.16978       54.44475       68.21899
C         67.05707       55.88387       68.09038
C         67.02304       56.57093       69.46810
O         66.86271       57.78059       69.52237
C         65.80016       56.14396       67.23564
C         65.75524       57.50291       66.60309
O         64.78527       57.81204       65.93002
O         66.77607       58.37361       66.72654
H         66.46148       53.97685       68.80223
H         67.92609       56.27717       67.51877
H         64.88982       55.95205       67.84391
H         65.79316       55.43287       66.37858
N         67.23031       55.85994       70.62283
C         67.34559       56.46240       71.95014
C         65.99206       56.93997       72.47130
O         65.09388       56.11642       72.56952
C         67.98794       55.43075       72.90962
C         68.40718       56.02449       74.23329
C         69.77152       56.25650       74.48619
C         67.46405       56.34162       75.22624
C         70.18323       56.80617       75.70143
C         67.88250       56.88252       76.44678
C         69.24008       57.11777       76.68234
H         67.42364       54.85221       70.55810
H         68.08084       57.28825       71.86966
H         68.90574       55.06831       72.39446
H         67.34223       54.53879       73.06825
H         70.51882       56.02291       73.73753
H         66.40979       56.15935       75.06611
H         71.23488       56.98902       75.88078
H         67.15460       57.11806       77.21193
H         69.56287       57.53922       77.62518
N         65.76614       58.23717       72.86145
C         64.49305       58.74885       73.36361
C         63.32633       58.43327       72.45146
O         62.32477       57.90408       72.91194
C         64.71536       60.26812       73.42115
C         66.17887       60.34870       73.77393
C         66.77852       59.27390       72.87122
H         64.31998       58.33869       74.38463
H         64.62386       60.71479       72.40511
H         64.02313       60.80904       74.10109
H         66.64473       61.35129       73.66977
H         66.27909       60.01445       74.83249
H         66.93539       59.62455       71.82759
H         67.73621       58.95036       73.33238
N         63.42272       58.70533       71.12170
C         62.39141       58.39614       70.13682
C         62.03843       56.92038       70.19413
O         60.85808       56.60694       70.26445
C         62.88155       58.80440       68.73296
C         62.97654       60.34280       68.59452
C         63.62058       60.71814       67.29663
O         63.17352       60.30532       66.23790
O         64.77191       61.41423       67.31136
H         64.31086       59.10991       70.78723
H         61.46523       58.97631       70.34817
H         62.17224       58.43577       67.95932
H         63.87027       58.32785       68.55126
H         63.59560       60.77055       69.41134
H         61.96137       60.78717       68.65577
N         63.00915       55.96584       70.25551
C         62.72356       54.55327       70.42229
H         61.63507       54.33251       70.39616
H         63.22112       53.97416       69.61871
H         63.11503       54.21469       71.40606
H         63.99825       56.25274       70.24362
Ca        66.32321       60.45432       66.04702
O         67.81936       62.14777       63.59845
H         68.56002       61.95462       62.97055
H         68.11423       62.95559       64.08830
O         69.36514       60.91335       66.18659
H         69.10444       61.74406       66.65846
H         69.11387       60.18539       66.80913
O         64.88208       62.79699       64.58930
H         65.47936       63.57814       64.70576
H         64.05464       63.17126       64.19568

Ca 1.0



