%chk=apoCaM-CA-Ng.loop1.water1.frame849.chk
%nprocshared=20
%mem=10GB
%nosave
#b3lyp/svp scf=(tight,noincore,xqc) Test 
#IOP(5/87=12) Density=Current Pop=(MK,readradii) iop(6/33=2) iop(6/42=6)

apoCaM-CA-Ng.loop1.water1.frame849 

   0  1 
C         45.75765       52.13436      114.98523
C         44.39922       52.03832      114.35787
O         44.05057       50.96914      113.87715
H         46.52928       51.90722      114.21901
H         45.95109       53.15166      115.38534
H         45.83848       51.40112      115.81346
N         43.57749       53.12611      114.30709
C         42.26522       53.09507      113.65747
C         42.35839       52.65868      112.20344
O         43.44513       52.61818      111.64516
C         41.50345       54.43597      113.81154
C         42.36201       55.67782      113.69780
O         43.12418       55.97406      112.62588
O         42.41213       56.43451      114.65572
H         43.91127       53.99771      114.74336
H         41.65896       52.30749      114.15856
H         41.07898       54.45280      114.84111
H         40.64143       54.47946      113.11202
N         41.24780       52.17174      111.57520
C         41.31342       51.54743      110.25933
C         41.59906       52.49930      109.12110
O         42.11003       51.99848      108.12906
C         40.04974       50.70215      109.92397
C         40.26080       49.20889      110.23589
C         39.04147       48.36884      109.81719
C         39.29154       46.84936      109.88455
N         40.25506       46.39716      108.87393
H         40.36117       52.13727      112.10204
H         42.18290       50.84965      110.26581
H         39.86809       50.72748      108.82562
H         39.14026       51.12625      110.40345
H         40.48363       49.04705      111.31248
H         41.14106       48.88972      109.64030
H         38.73672       48.61564      108.77646
H         38.19904       48.62941      110.49366
H         38.32348       46.33709      109.68869
H         39.63505       46.55568      110.90045
H         40.31946       45.35410      108.90545
H         39.93475       46.67856      107.91809
H         41.20794       46.78239      109.05467
N         41.21987       53.81383      109.09507
C         41.40599       54.58764      107.86718
C         42.92351       54.68218      107.49514
O         43.64065       55.54904      108.32445
C         40.59153       55.91035      107.82264
C         40.78293       56.94920      108.89288
O         40.13383       57.98086      108.83264
O         41.60922       56.76729      109.93002
H         40.73007       54.22311      109.90421
H         40.92311       53.97430      107.08053
H         39.51542       55.63208      107.85496
H         40.77960       56.40319      106.84735
N         43.25189       55.03434      106.09506
C         42.34537       54.58174      105.02777
C         42.16999       53.08383      104.92430
O         42.87558       52.32045      105.56664
H         44.22467       54.70458      105.89283
H         42.70818       54.96142      104.04883
H         41.35442       55.04868      105.17710
N         41.17195       52.61451      104.12861
C         40.81057       51.21330      103.97671
C         40.90424       50.85639      102.51079
O         40.37988       51.59019      101.68209
C         39.38522       51.00844      104.52317
C         38.96322       49.56241      104.50161
O         38.69199       48.92493      105.65684
O         38.85172       48.96250      103.44437
H         40.59451       53.30669      103.62461
H         41.48474       50.55694      104.57212
H         38.65344       51.61908      103.95119
H         39.37149       51.35463      105.58059
N         41.55613       49.73115      102.11083
C         41.75530       49.41563      100.71040
C         42.89305       50.21654      100.10640
O         43.14928       50.03920       98.92551
H         41.91903       49.07372      102.81784
H         40.80500       49.55368      100.14854
H         42.04550       48.34674      100.61800
N         43.67159       51.04789      100.86803
C         44.87351       51.70506      100.36369
C         44.84739       53.20560      100.60980
O         44.00729       53.68625      101.35575
C         46.11799       51.07764      101.05292
C         46.11302       51.24532      102.58870
O         46.17277       49.71026      100.73820
H         43.46069       51.16657      101.86595
H         44.96376       51.54538       99.26772
H         47.02233       51.57837      100.64141
H         47.08953       49.39910      100.96016
H         47.04421       50.82234      103.01955
H         46.05790       52.31582      102.87653
H         45.26290       50.70562      103.05617
N         45.79054       53.99991      100.01843
C         45.98615       55.40793      100.35303
C         45.56135       56.30331       99.20093
O         44.75355       57.19444       99.43507
C         47.47490       55.67417      100.74043
C         47.97792       54.64971      101.79284
C         47.62560       57.11997      101.26060
C         49.45615       54.81209      102.15612
H         46.43548       53.57363       99.33676
H         45.36512       55.67325      101.23857
H         48.10373       55.55272       99.83009
H         47.87973       53.62949      101.37143
H         47.36284       54.70529      102.71653
H         47.03174       57.25788      102.19050
H         48.68397       57.36803      101.47209
H         47.27713       57.85477      100.50638
H         49.64244       55.76959      102.68183
H         49.75958       53.99173      102.84017
H         50.08678       54.76071      101.24269
N         46.04008       56.12859       97.93333
C         45.67130       57.00146       96.81774
C         46.90237       57.45736       96.04027
O         47.98875       56.92423       96.23457
C         44.67269       56.26279       95.88441
C         43.35679       55.96284       96.61026
O         44.37573       57.04561       94.75653
H         46.65315       55.32037       97.74111
H         45.17545       57.92129       97.20134
H         45.14997       55.30610       95.56261
H         44.15307       56.42192       94.01646
H         42.87930       56.91349       96.93541
H         42.65893       55.43880       95.92393
H         43.52260       55.31858       97.49732
N         46.77932       58.45939       95.12466
C         47.83495       58.91398       94.22917
C         48.21607       60.35013       94.54394
O         49.39127       60.60568       94.76347
C         47.36366       58.74232       92.75916
C         48.41902       59.19218       91.74474
O         46.18031       59.46304       92.51802
H         45.86335       58.92622       95.04453
H         48.74946       58.28816       94.34924
H         47.19106       57.65347       92.57774
H         45.42181       58.82837       92.60757
H         49.36347       58.62663       91.88755
H         48.04773       59.00743       90.71384
H         48.62557       60.27929       91.84609
N         47.27895       61.34147       94.58654
C         47.62369       62.73779       94.82639
C         46.44614       63.47477       95.44501
O         45.36102       63.44963       94.88152
C         48.13138       63.39891       93.52325
C         47.07833       63.47921       92.40354
C         47.66233       64.10806       91.13434
C         46.57773       64.27467       90.06053
N         47.12921       64.87537       88.84701
H         46.28871       61.09724       94.44672
H         48.46243       62.78408       95.55627
H         49.00788       62.82176       93.15494
H         48.47823       64.42883       93.76018
H         46.23436       64.11571       92.73808
H         46.69665       62.46232       92.16555
H         48.48077       63.46298       90.74612
H         48.07959       65.10990       91.37762
H         45.76813       64.92972       90.45470
H         46.13662       63.28360       89.81309
H         46.36198       64.99798       88.14722
H         47.54132       65.81213       89.06349
H         47.86323       64.25128       88.44042
N         46.59586       64.14425       96.62593
C         45.50720       64.86249       97.27977
C         45.06596       64.26260       98.62137
O         43.86537       64.29712       98.85414
C         45.77483       66.38253       97.35208
C         46.92847       66.80803       98.27265
C         47.13920       68.30070       98.29430
O         48.10980       68.81709       99.07124
O         46.44770       69.05176       97.62293
H         47.53194       64.17658       97.04497
H         44.60098       64.80400       96.63546
H         44.84575       66.88181       97.70803
H         45.98365       66.74398       96.32025
H         47.87369       66.33785       97.93183
H         46.70245       66.48662       99.31075
N         45.87551       63.71118       99.57930
C         47.30652       63.51370       99.50421
H         47.83961       64.47176       99.36865
H         47.66938       63.06508      100.45345
H         47.55457       62.79182       98.70059
H         45.42314       63.38005      100.44615
Ca        43.53540       55.13563      110.56750
O         46.01746       53.41007      110.00340
H         46.59364       53.40813      110.80864
H         45.55295       52.53611      110.02840

Ca 1.0



