%chk=apoCaM-CA-Ng.loop1.water5.frame391.chk
%nprocshared=20
%mem=10GB
%nosave
#b3lyp/svp scf=(tight,noincore,xqc) Test 
#IOP(5/87=12) Density=Current Pop=(MK,readradii) iop(6/33=2) iop(6/42=6)

apoCaM-CA-Ng.loop1.water5.frame391 

   0  1 
C          6.02838       67.54411       23.52451
C          6.91494       66.33634       23.49031
O          8.12686       66.47901       23.41789
H          5.06493       67.29978       24.02567
H          6.51359       68.35538       24.10642
H          5.82267       67.88431       22.49077
N          6.35844       65.09896       23.54802
C          7.12259       63.86832       23.67775
C          7.40310       63.21548       22.31740
O          7.77713       62.07216       22.31567
C          6.32300       62.86707       24.56221
C          5.92905       63.42187       25.91318
O          6.25794       62.76468       27.03866
O          5.25991       64.43884       25.99910
H          5.33079       65.03611       23.61143
H          8.07964       64.06479       24.22007
H          6.92545       61.94575       24.71671
H          5.39784       62.56105       24.03169
N          7.26198       63.82704       21.11468
C          7.51830       63.13707       19.83627
C          8.75081       63.73942       19.18682
O          8.87796       64.95301       19.26123
C          6.28938       63.31991       18.90244
C          5.07730       62.45154       19.29140
C          3.81267       62.82133       18.47462
C          2.62389       61.85751       18.69487
N          2.05210       61.94591       20.03935
H          7.00184       64.82217       21.08782
H          7.70849       62.05213       19.96315
H          6.56265       63.02898       17.87197
H          6.00673       64.39236       18.87115
H          4.85084       62.58027       20.36627
H          5.36510       61.39225       19.09789
H          4.04999       62.80579       17.38764
H          3.49585       63.85661       18.72891
H          2.94349       60.81295       18.48110
H          1.81747       62.12009       17.97307
H          1.26971       61.25476       20.11853
H          2.76145       61.72779       20.77283
H          1.65972       62.90404       20.18849
N          9.69735       63.03902       18.47347
C          9.78634       61.60490       18.16711
C          8.49680       61.03755       17.61982
O          7.93658       60.15451       18.21726
C         10.37103       60.78820       19.33760
C         11.75095       61.22107       19.75662
O         12.43181       62.15669       19.07627
O         12.25086       60.73042       20.75366
H         10.43774       63.61097       18.04357
H         10.52161       61.46955       17.37717
H         10.45672       59.72206       19.03903
H          9.69370       60.86356       20.20613
N          7.89485       61.46320       16.50138
C          8.42228       62.43740       15.58364
C          7.34978       62.83832       14.60300
O          6.18949       62.49325       14.79232
H          6.98841       61.02290       16.31577
H          9.29283       61.97288       15.07506
H          8.73416       63.36068       16.11013
N          7.61399       63.56203       13.49418
C          8.94462       63.83114       12.96020
C          9.37426       62.71990       12.01290
O         10.47719       62.78271       11.48676
C          8.97804       65.22795       12.30366
C          7.88406       65.53775       11.30081
O          7.13349       64.67782       10.86681
O          7.72164       66.80851       10.89075
H          6.79752       63.71415       12.89250
H          9.70643       63.83264       13.77327
H          9.95823       65.37852       11.80494
H          8.90008       65.97352       13.12335
N          8.57717       61.63420       11.80404
C          8.97932       60.45432       11.07411
C          9.60831       59.44842       12.00243
O         10.01631       59.80336       13.10065
H          7.66619       61.56043       12.27367
H          9.62679       60.67780       10.20150
H          8.04324       59.99370       10.69110
N          9.65270       58.13753       11.63118
C         10.15197       57.04595       12.47015
C          9.69387       57.15317       13.92515
O         10.49870       57.18005       14.84612
C         11.67205       56.89374       12.29777
C         12.48081       58.15867       12.64056
O         11.94128       56.52713       10.97172
H          9.25416       57.88782       10.71153
H          9.69068       56.10797       12.08297
H         12.00369       56.07646       12.97666
H         11.72095       55.55966       10.90505
H         13.56365       57.96343       12.51315
H         12.23676       59.01273       11.97233
H         12.30468       58.46678       13.69036
N          8.36801       57.25250       14.16979
C          7.76720       57.57609       15.45891
C          8.00184       56.50067       16.51998
O          7.72779       55.33146       16.29190
C          6.24465       57.80132       15.23995
C          5.99366       58.98738       14.25769
C          5.50098       58.10622       16.56529
C          4.63290       58.89858       13.56381
H          7.74900       57.17257       13.35060
H          8.19078       58.54308       15.81353
H          5.85175       56.85777       14.80220
H          6.76298       59.10613       13.46478
H          6.05105       59.91797       14.83053
H          4.41578       58.22047       16.38011
H          5.62076       57.30750       17.32277
H          5.87772       59.04737       17.01989
H          4.68814       58.17675       12.72194
H          3.83795       58.56354       14.25616
H          4.34742       59.88671       13.14518
N          8.45331       56.88598       17.74574
C          8.55218       56.02244       18.93236
C          8.00387       56.65883       20.22164
O          7.72683       55.94976       21.17661
C         10.02605       55.59361       19.14824
C         11.04714       56.75170       19.17118
O         10.38063       54.70862       18.12169
H          8.74412       57.86309       17.80479
H          7.94191       55.11007       18.76263
H         10.12524       55.07078       20.13024
H         10.18939       53.79479       18.46558
H         10.94063       57.37927       20.07694
H         12.08057       56.33878       19.17147
H         10.95877       57.40485       18.27763
N          7.94934       58.00102       20.34596
C          7.73215       58.81167       21.51628
C          8.91239       58.71301       22.47100
O          9.77232       57.85454       22.32852
C          6.36876       58.60880       22.20509
C          5.20116       58.33983       21.25483
O          6.06543       59.78182       22.91226
H          8.18941       58.54982       19.55875
H          7.74798       59.86112       21.13820
H          6.46359       57.73793       22.89433
H          5.69224       59.51071       23.78606
H          5.16507       59.09017       20.43756
H          5.25293       57.31359       20.83244
H          4.26010       58.40449       21.84106
N          9.02060       59.64150       23.44927
C         10.06501       59.72922       24.45273
C         10.97799       60.96463       24.31374
O         11.99333       61.00338       24.99429
C          9.35459       59.81063       25.80575
C          8.83376       58.46811       26.30846
C          8.25444       58.63420       27.72543
C          6.99375       59.50204       27.76428
N          6.41741       59.51258       29.11215
H          8.27612       60.32653       23.51451
H         10.73737       58.85020       24.38866
H          8.50734       60.52620       25.70703
H         10.04815       60.20414       26.56838
H          9.69391       57.76537       26.36647
H          8.08404       58.02771       25.61123
H          9.02260       59.08907       28.39289
H          7.99149       57.63310       28.11752
H          6.26520       59.08073       27.03860
H          7.23328       60.54148       27.46472
H          7.11787       59.85749       29.80832
H          5.58431       60.14326       29.14433
H          6.11659       58.54624       29.37479
N         10.69912       61.99108       23.46646
C         11.53194       63.16653       23.22080
C         11.77054       63.98844       24.47452
O         10.88328       64.14260       25.30552
C         10.90836       64.01404       22.06777
C         11.79140       65.12847       21.42500
C         13.16435       64.72780       20.89011
O         13.99774       64.26419       21.64503
O         13.56988       65.07097       19.64285
H          9.86182       61.91138       22.91604
H         12.50262       62.79119       22.85920
H          9.96446       64.48217       22.43791
H         10.61434       63.31041       21.26573
H         11.93531       65.92281       22.18160
H         11.21957       65.56979       20.57697
N         12.97587       64.59355       24.62824
C         13.32379       65.42332       25.74778
H         14.23626       66.00389       25.48429
H         12.50551       66.13811       25.97101
H         13.54175       64.77525       26.61879
H         13.68706       64.48217       23.90258
Ca        13.52743       63.68051       17.88228
O         13.97617       60.68191       17.03012
H         14.37443       60.08084       16.35360
H         14.06400       60.18912       17.88363
O         16.43256       62.64546       16.40288
H         17.26948       63.08395       16.69894
H         16.68763       62.15842       15.58028
O         12.11883       62.58622       15.78297
H         12.00914       62.87985       14.84831
H         11.79927       61.65268       15.77136
O         16.10567       64.99335       18.10544
H         16.58299       65.78690       17.75803
H         16.31396       64.97160       19.07283
O         15.26309       62.02637       19.30176
H         14.90183       61.96159       20.22060
H         15.87044       61.25200       19.20777

Ca 1.0



