%chk=apoCaM-CA-Ng.loop4.water4.frame956.chk
%nprocshared=20
%mem=10GB
%nosave
#b3lyp/svp scf=(tight,noincore,xqc) Test 
#IOP(5/87=12) Density=Current Pop=(MK,readradii) iop(6/33=2) iop(6/42=6)

apoCaM-CA-Ng.loop4.water4.frame956 

   -3  1 
C         69.96462      107.51265       47.93145
C         69.74430      108.90251       47.41488
O         69.64208      109.08913       46.21124
H         70.92400      107.47458       48.48998
H         69.13563      107.23423       48.61592
H         70.00524      106.78039       47.09802
N         69.65713      109.93661       48.29613
C         69.46234      111.33528       47.93062
C         68.15694      111.51824       47.17730
O         68.16296      112.11732       46.11497
C         70.65647      111.86741       47.10352
C         71.97360      111.57961       47.75201
O         72.78645      110.88495       47.16806
O         72.26786      112.07681       48.96734
H         69.73641      109.72379       49.30301
H         69.40401      111.92164       48.87508
H         70.55607      112.96410       46.95292
H         70.65210      111.38782       46.09984
N         66.98782      111.03267       47.67671
C         65.71421      111.12823       46.96575
C         64.83977      112.08258       47.75365
O         64.58048      111.77134       48.90891
C         65.03916      109.71348       46.88615
C         65.92503      108.61618       46.23780
C         63.65002      109.75385       46.21796
C         66.19574      108.78713       44.74384
H         66.99873      110.58109       48.60471
H         65.88156      111.51784       45.94803
H         64.87723      109.37838       47.93500
H         65.42511      107.63192       46.37226
H         66.89512      108.56516       46.77412
H         62.97715      110.46531       46.73971
H         63.71237      110.05178       45.15491
H         63.17721      108.75033       46.26040
H         66.84661      107.95949       44.39009
H         65.25816      108.75012       44.15273
H         66.70854      109.74068       44.55639
N         64.35216      113.27235       47.28925
C         64.51513      113.88538       45.96379
C         63.90715      115.27789       46.03489
O         62.73398      115.38296       46.37040
C         63.79597      113.07791       44.85653
C         63.79599      113.78380       43.52775
O         62.62549      114.08049       42.93186
O         64.84561      114.08398       42.98218
H         63.81726      113.81286       47.98924
H         65.59670      113.97470       45.71590
H         62.74272      112.89336       45.15872
H         64.28571      112.10885       44.69374
N         64.64281      116.39122       45.75455
C         64.11946      117.73134       45.96832
C         63.90325      118.52685       44.70652
O         63.43312      119.64807       44.84182
H         65.61456      116.29192       45.42139
H         64.81786      118.28000       46.63743
H         63.13805      117.69755       46.48519
N         64.22075      118.06208       43.46084
C         64.03586      118.88528       42.26727
C         63.29846      118.20471       41.12013
O         62.93409      118.92474       40.20205
C         65.39568      119.46833       41.82646
C         66.50579      118.45119       41.72885
O         66.44916      117.52352       40.94334
O         67.58199      118.56566       42.52970
H         64.68248      117.14654       43.36383
H         63.39349      119.76084       42.50995
H         65.70326      120.20176       42.60284
H         65.28592      120.02413       40.86965
N         63.03426      116.86538       41.06028
C         62.32886      116.26493       39.92817
C         63.06434      116.38931       38.59549
O         62.49325      116.00829       37.58459
H         63.32492      116.24935       41.82835
H         61.33353      116.75233       39.83838
H         62.15899      115.18298       40.12256
N         64.33127      116.89541       38.51605
C         65.10888      117.08463       37.29567
C         65.47830      115.77764       36.60387
O         66.03643      115.83126       35.51748
C         64.45905      118.12773       36.35524
C         64.21020      119.45103       37.10935
C         63.84322      120.62074       36.23402
N         63.59787      121.82417       36.80419
O         63.78273      120.50206       35.01917
H         64.79869      117.17921       39.37457
H         66.08681      117.53261       37.58474
H         63.50823      117.75968       35.91372
H         65.17802      118.31975       35.52845
H         65.13032      119.73997       37.66247
H         63.38965      119.29306       37.83484
H         63.64671      121.93938       37.82807
H         63.36232      122.64387       36.22581
N         65.28364      114.57173       37.21372
C         65.67907      113.28880       36.63623
C         66.73633      112.58823       37.48982
O         67.11982      111.47963       37.13758
C         64.42476      112.37166       36.49417
C         63.78075      112.00987       37.85069
C         63.37445      113.01307       35.57870
H         64.86236      114.54927       38.15022
H         66.11927      113.43213       35.62541
H         64.74612      111.42005       36.01533
H         64.51053      111.49696       38.51075
H         63.39187      112.90485       38.37870
H         62.92902      111.31484       37.69565
H         63.81367      113.22719       34.58219
H         62.51416      112.32378       35.44195
H         62.99480      113.96057       36.01325
N         67.19334      113.12890       38.65719
C         67.96390      112.38253       39.64193
C         69.25238      113.12208       40.03190
O         69.51010      114.20242       39.51741
C         66.97803      112.16984       40.81457
C         67.51052      111.37212       41.95730
N         67.60100      111.92822       43.18147
O         67.87442      110.21807       41.78274
H         66.87861      114.06588       38.94784
H         68.25702      111.38364       39.24881
H         66.08231      111.63104       40.43381
H         66.64196      113.16544       41.17536
H         67.29185      112.89600       43.35899
H         68.00243      111.38105       43.94610
N         70.11350      112.57586       40.94140
C         71.36384      113.17175       41.39808
C         72.49040      112.17296       41.22467
O         72.36193      111.04387       41.68176
C         71.24709      113.55031       42.89310
C         72.58067      113.97156       43.49301
C         73.32656      115.04107       42.96289
C         73.10012      113.26443       44.58978
C         74.57057      115.37879       43.51336
C         74.33137      113.61299       45.14698
C         75.07633      114.66319       44.60864
O         76.27343      114.97028       45.14886
H         69.88069      111.66671       41.35766
H         71.59748      114.10651       40.84326
H         70.85332      112.67559       43.45768
H         70.51052      114.37522       43.00089
H         72.95772      115.60312       42.11550
H         72.55317      112.43693       45.01316
H         75.14216      116.19366       43.08722
H         74.70904      113.05945       45.99478
H         76.83118      115.68028       44.80081
N         73.67017      112.56515       40.66935
C         74.83948      111.70466       40.59277
C         75.88792      112.24522       41.56212
O         76.43654      113.29972       41.27191
C         75.33959      111.68583       39.12791
C         76.65345      110.92137       38.90981
C         77.06356      110.97999       37.46476
O         76.35369      110.48685       36.60255
O         78.21870      111.57733       37.11312
H         73.77095      113.54389       40.35721
H         74.56286      110.67505       40.87015
H         75.50072      112.73484       38.79166
H         74.54140      111.24210       38.49208
H         76.54235      109.85981       39.20759
H         77.45589      111.38619       39.52290
N         76.20982      111.65513       42.76012
C         75.54747      110.48488       43.34994
C         75.70691      109.21963       42.52666
O         76.55329      109.16389       41.64664
C         76.03187      110.22105       44.81098
C         77.54113      109.91339       44.90304
C         78.09922      109.63300       46.28043
O         77.36400      109.58251       47.41168
O         79.29964      109.43605       46.37495
H         76.91358      112.14805       43.32854
H         74.46225      110.72388       43.39279
H         75.46082      109.36521       45.22531
H         75.81278      111.11270       45.43100
H         78.10957      110.78029       44.51274
H         77.77289      109.03218       44.26987
N         74.87064      108.16687       42.75585
C         74.89940      106.93293       41.99797
H         73.92505      106.80052       41.48042
H         75.70451      106.92236       41.23435
H         75.05326      106.07947       42.69021
H         74.14741      108.25186       43.48644
Ca        75.15945      109.77759       47.79822
O         76.09529      112.58736       48.24032
H         76.18457      113.42628       48.75750
H         77.01241      112.38903       47.92418
O         74.21435      110.82262       51.27767
H         73.50353      110.50071       51.88717
H         74.79025      111.39234       51.84727
O         77.17831      110.41898       50.35142
H         77.95082      110.89760       49.95836
H         77.43471      110.26523       51.29510
O         73.89599      107.26120       46.69414
H         74.84565      107.25977       46.41261
H         73.49932      108.04144       46.23062

Ca 1.0



