%chk=apoCaM-CA-Ng.loop3.water5.frame296.chk
%nprocshared=20
%mem=10GB
%nosave
#b3lyp/svp scf=(tight,noincore,xqc) Test 
#IOP(5/87=12) Density=Current Pop=(MK,readradii) iop(6/33=2) iop(6/42=6)

apoCaM-CA-Ng.loop3.water5.frame296 

   0  1 
C         90.28610       34.34022       28.82745
C         91.47635       34.72016       27.99489
O         91.84207       33.96887       27.10375
H         89.39671       34.22403       28.17521
H         90.48154       33.38411       29.35191
H         90.06438       35.11325       29.59395
N         92.14081       35.88212       28.24545
C         93.31152       36.34996       27.51421
C         94.45758       35.34892       27.63164
O         95.12066       35.06423       26.64354
C         92.92418       36.69005       26.05307
C         94.00460       37.42704       25.31291
O         94.48612       36.95525       24.29515
O         94.42162       38.63007       25.75131
H         91.81044       36.47861       29.02010
H         93.63616       37.29101       28.01326
H         92.02505       37.34289       26.05728
H         92.66694       35.75692       25.50946
N         94.71783       34.74478       28.82815
C         95.79904       33.78610       29.03124
C         95.20669       32.41203       29.28577
O         95.44454       31.81760       30.32938
C         96.67428       34.25412       30.21021
C         97.27430       35.64321       29.97169
C         98.10620       36.07985       31.18430
C         98.69516       37.49039       31.03185
N         99.64195       37.58115       29.91911
H         94.10706       34.95209       29.63352
H         96.43671       33.70224       28.12363
H         97.49813       33.52317       30.36716
H         96.04945       34.28669       31.13162
H         96.45913       36.38372       29.81641
H         97.90330       35.60043       29.05877
H         98.92794       35.35187       31.35960
H         97.44868       36.08364       32.08214
H         99.22639       37.74200       31.97627
H         97.87631       38.23081       30.89182
H         99.15385       37.45132       29.00493
H        100.07580       38.53198       29.92122
H        100.39619       36.86482       30.02809
N         94.38305       31.86181       28.35277
C         93.68828       30.59568       28.53250
C         93.97659       29.69531       27.34657
O         93.73358       30.11986       26.22711
C         92.18548       30.91440       28.65411
C         91.31469       29.75161       29.02675
O         89.99104       29.94550       29.17252
O         91.78702       28.64826       29.23498
H         94.18526       32.40062       27.49470
H         94.00543       30.10045       29.47634
H         91.81671       31.35341       27.70240
H         92.06329       31.66702       29.46133
N         94.50778       28.44671       27.50409
C         94.82717       27.58256       26.37446
C         93.61989       27.12330       25.57610
O         93.82381       26.52841       24.52712
H         94.73393       28.10968       28.45035
H         95.36402       26.67618       26.72700
H         95.51316       28.13846       25.69921
N         92.33864       27.34403       25.99266
C         91.17515       26.97005       25.19220
C         91.04854       27.84261       23.93780
O         90.16450       27.57204       23.13700
C         89.87886       27.10230       26.03202
C         89.77404       26.18378       27.27103
N         88.59241       25.33017       27.23202
O         90.91715       25.41438       27.48884
H         92.17810       27.77506       26.91083
H         91.27157       25.90595       24.88124
H         89.00118       26.91482       25.37709
H         89.80292       28.14230       26.40383
H         87.74512       25.93926       27.26218
H         88.57087       24.75639       28.10484
N         91.86157       28.91904       23.70876
C         91.73905       29.81150       22.56848
C         90.38333       30.45928       22.55962
O         89.66905       30.32502       21.57792
H         92.59407       29.15870       24.38079
H         91.91322       29.24964       21.62505
H         92.50919       30.60959       22.64652
N         89.93997       31.11823       23.66746
C         88.57020       31.60097       23.79759
C         87.83550       30.68389       24.75237
O         88.45985       29.84736       25.38049
C         88.55713       33.07259       24.24745
C         89.23753       33.95393       23.22554
C         90.42443       34.63439       23.54424
C         88.69123       34.09795       21.93855
C         91.05863       35.43660       22.58931
C         89.32381       34.90238       20.98674
C         90.51238       35.57283       21.30842
O         91.13584       36.34729       20.39743
H         90.55843       31.17954       24.49131
H         88.03725       31.50581       22.82794
H         89.07532       33.14309       25.23021
H         87.51483       33.43150       24.39006
H         90.86322       34.53640       24.52750
H         87.77402       33.58854       21.67170
H         91.97697       35.95088       22.84399
H         88.88973       35.00189       19.99977
H         90.79177       36.46463       19.50017
N         86.47625       30.70838       24.82396
C         85.72766       29.68278       25.55188
C         86.05747       28.31779       24.94346
O         86.40950       27.41597       25.69140
C         84.19753       29.98060       25.54292
C         83.85536       31.37464       26.15058
C         83.40647       28.88649       26.29178
C         84.23905       31.56110       27.62607
H         85.97150       31.41531       24.27267
H         86.04643       29.67548       26.61659
H         83.85017       29.98466       24.48588
H         82.76049       31.54266       26.05780
H         84.35008       32.17810       25.56870
H         83.72815       28.80154       27.34930
H         82.31889       29.10950       26.25873
H         83.55159       27.89272       25.83764
H         83.94648       32.58008       27.95462
H         83.70880       30.83819       28.27843
H         85.33287       31.46064       27.77701
N         86.05861       28.11995       23.58863
C         86.50017       26.86502       22.97137
C         85.51581       25.71991       23.16673
O         85.84842       24.59914       22.81261
C         86.73144       27.04729       21.46239
O         87.67952       28.05467       21.22813
H         85.82520       28.92041       22.97971
H         87.47573       26.58041       23.42628
H         85.78231       27.32792       20.95858
H         87.06606       26.08567       21.00312
H         88.55064       27.60506       21.07128
N         84.28488       25.92903       23.71048
C         83.29016       24.89132       23.93760
C         83.84371       23.78660       24.81798
O         83.65947       22.61154       24.51208
C         82.72310       24.37573       22.60819
H         84.01652       26.87690       23.98892
H         82.44682       25.36742       24.48870
H         82.31924       25.22471       22.01665
H         83.50675       23.86623       22.01002
H         81.89533       23.65883       22.79641
N         84.51680       24.09655       25.95732
C         84.97579       23.08540       26.90176
C         85.08647       23.64815       28.30296
O         85.01181       24.86053       28.48230
C         86.31524       22.48656       26.45235
H         84.65198       25.09786       26.17449
H         84.20151       22.28714       26.95633
H         87.09269       23.27809       26.41250
H         86.65267       21.69942       27.16001
H         86.22606       22.03535       25.44280
N         85.19326       22.80824       29.37126
C         85.26181       23.27287       30.75243
C         84.05161       24.12844       31.12529
O         84.14622       24.91114       32.06018
C         86.60969       23.98986       31.00262
C         87.77707       23.00524       30.82781
C         89.10131       23.66122       31.07021
O         89.95689       23.63979       30.20179
O         89.36729       24.24338       32.25508
H         85.19796       21.78834       29.20551
H         85.24093       22.39666       31.43705
H         86.63890       24.37352       32.04584
H         86.72643       24.85216       30.31337
H         87.76488       22.57762       29.80115
H         87.66410       22.17395       31.55657
N         82.86187       23.99060       30.46676
C         81.67787       24.76583       30.77954
H         80.85852       24.07952       31.07946
H         81.84800       25.49184       31.60152
H         81.36063       25.32873       29.87652
H         82.77070       23.29996       29.70817
Ca        91.47734       25.91688       29.64074
O         91.48794       26.93236       32.60999
H         90.58465       26.74296       32.96766
H         92.06526       26.99779       33.41167
O         94.02241       27.25422       30.95286
H         94.99391       27.24836       30.76348
H         93.82269       28.19141       31.20210
O         93.79997       24.96974       28.21453
H         94.72754       24.65962       28.36229
H         93.50395       24.49864       27.39563
O         93.11379       23.99984       31.31251
H         94.06337       24.27956       31.33244
H         92.86018       23.90771       32.26504
O         88.83951       27.36367       30.58457
H         87.96718       26.89855       30.61303
H         88.97721       27.56279       29.62541

Ca 1.0



