%chk=apoCaM-CA-Ng.loop2.water5.frame406.chk
%nprocshared=20
%mem=10GB
%nosave
#b3lyp/svp scf=(tight,noincore,xqc) Test 
#IOP(5/87=12) Density=Current Pop=(MK,readradii) iop(6/33=2) iop(6/42=6)

apoCaM-CA-Ng.loop2.water5.frame406 

   -2  1 
C        -16.99883       87.69684        6.33035
C        -18.32388       87.15602        5.88013
O        -18.49147       86.89485        4.69740
H        -16.29979       87.79882        5.47243
H        -17.13894       88.69033        6.80173
H        -16.54894       87.00484        7.07359
N        -19.31343       86.94452        6.79228
C        -20.61203       86.37238        6.46288
C        -21.71830       87.33514        6.87122
O        -21.79455       87.68614        8.04042
C        -20.74964       85.02356        7.20216
C        -21.98451       84.23602        6.84314
O        -22.78787       84.64797        6.02080
O        -22.19263       83.04074        7.42674
H        -19.12173       87.16665        7.78079
H        -20.67695       86.16289        5.37213
H        -20.73860       85.19932        8.30035
H        -19.87242       84.38941        6.94803
N        -22.63060       87.77879        5.95768
C        -23.74978       88.66230        6.28894
C        -23.69823       89.93769        5.46133
O        -22.76987       90.09831        4.68052
C        -25.05470       87.89651        6.05436
H        -22.55375       87.44795        4.98281
H        -23.72100       88.95894        7.35963
H        -25.14811       87.59251        4.99040
H        -25.06508       86.98566        6.69086
H        -25.93606       88.50846        6.33493
N        -24.67971       90.88892        5.56274
C        -24.64245       92.14075        4.81008
C        -25.61667       92.09568        3.64668
O        -26.33886       93.05382        3.40353
C        -24.91799       93.34054        5.74191
C        -23.94292       93.42122        6.87646
O        -22.75574       93.58884        6.65339
O        -24.37915       93.32923        8.14782
H        -25.49173       90.71605        6.17241
H        -23.63974       92.27208        4.34527
H        -25.94570       93.23934        6.15643
H        -24.86651       94.29158        5.16822
N        -25.63501       91.00499        2.83542
C        -26.37151       90.94095        1.58887
C        -25.74481       91.88099        0.59014
O        -26.44260       92.65386       -0.04941
H        -25.05786       90.18642        3.07864
H        -27.45661       91.13011        1.73917
H        -26.25351       89.91539        1.17638
N        -24.39223       91.85784        0.43685
C        -23.63897       92.67751       -0.49970
C        -22.80690       91.77950       -1.40772
O        -22.79870       92.00707       -2.60951
C        -22.75671       93.67363        0.27670
C        -22.10345       94.67420       -0.65104
N        -20.75793       94.79766       -0.71135
O        -22.80473       95.39197       -1.34995
H        -23.86271       91.23532        1.06182
H        -24.33185       93.28619       -1.12363
H        -21.99920       93.12721        0.87901
H        -23.40027       94.25040        0.97759
H        -20.14499       94.21099       -0.12817
H        -20.32748       95.48852       -1.34479
N        -22.12631       90.70011       -0.91021
C        -21.37538       89.77822       -1.74177
C        -20.08029       90.37696       -2.22619
O        -19.76452       91.51181       -1.89502
H        -22.18077       90.46447        0.08861
H        -22.00720       89.44762       -2.59628
H        -21.11501       88.87637       -1.14580
N        -19.27191       89.64184       -3.03876
C        -18.03058       90.17381       -3.59884
C        -16.93310       90.38292       -2.55130
O        -15.93212       91.00132       -2.89143
C        -17.52289       89.29937       -4.77843
C        -17.04338       87.89721       -4.36687
O        -18.50435       89.21942       -5.78535
H        -19.60076       88.70572       -3.31631
H        -18.27843       91.16697       -4.03588
H        -16.64378       89.80836       -5.22950
H        -19.16963       88.52917       -5.52751
H        -16.70398       87.33991       -5.26481
H        -16.18032       87.98215       -3.68337
H        -17.84707       87.31301       -3.87225
N        -17.03147       89.89780       -1.27882
C        -16.02119       90.09658       -0.23865
C        -16.66302       90.83954        0.90714
O        -17.73148       90.42054        1.33904
C        -15.46436       88.73041        0.27080
C        -14.84304       87.87288       -0.85778
C        -14.44583       88.92411        1.41625
C        -13.65571       88.51229       -1.58797
H        -17.86627       89.35125       -1.01528
H        -15.16175       90.69468       -0.61075
H        -16.31059       88.13777        0.68679
H        -15.63303       87.63778       -1.59321
H        -14.50624       86.90395       -0.42895
H        -14.06819       87.94002        1.76693
H        -13.58547       89.54596        1.09324
H        -14.91700       89.42167        2.28927
H        -13.29139       87.81680       -2.37232
H        -13.94853       89.45639       -2.08698
H        -12.81556       88.71197       -0.89248
N        -16.06277       91.92913        1.47403
C        -16.64201       92.62902        2.61823
C        -15.86712       93.91586        2.92814
O        -15.54221       94.17277        4.07642
C        -16.69294       91.64764        3.82881
C        -17.47581       92.08144        5.02704
O        -17.63284       91.18820        6.02158
O        -17.97777       93.19111        5.11199
H        -15.16724       92.25887        1.07877
H        -17.67168       92.93217        2.32568
H        -15.65440       91.40149        4.14436
H        -17.16765       90.69590        3.53944
N        -15.54158       94.77798        1.91895
C        -14.88681       96.07463        2.11225
C        -13.60666       95.96712        2.93870
O        -12.77710       95.12755        2.61782
C        -14.60572       96.72409        0.73294
C        -14.09024       98.14124        0.85016
C        -14.97385       99.22168        0.68324
C        -12.73720       98.40264        1.13695
C        -14.51834      100.53586        0.81709
C        -12.28352       99.72079        1.25832
C        -13.17461      100.78584        1.10394
H        -15.79054       94.50255        0.95671
H        -15.61652       96.72374        2.63542
H        -15.57424       96.74865        0.18695
H        -13.90883       96.11503        0.11499
H        -16.02048       99.04643        0.46867
H        -12.03255       97.59041        1.26197
H        -15.20968      101.36039        0.70143
H        -11.24178       99.91774        1.47706
H        -12.82494      101.80507        1.20655
N        -13.34591       96.81286        3.99255
C        -12.11888       96.78459        4.78334
C        -11.93772       95.51666        5.59275
O        -10.80971       95.17299        5.91543
C        -12.28426       97.96311        5.75484
C        -13.12441       98.92102        4.94493
C        -14.15077       97.96923        4.34470
H        -11.26234       96.95931        4.09423
H        -12.92012       97.65865        6.61983
H        -11.32891       98.37095        6.14875
H        -13.55988       99.76830        5.51542
H        -12.48909       99.32698        4.12488
H        -14.90609       97.66429        5.10290
H        -14.63195       98.48146        3.48932
N        -13.02558       94.83080        6.04509
C        -12.94510       93.67166        6.93112
C        -12.27712       92.46481        6.27532
O        -12.07851       91.47654        6.96965
C        -14.36075       93.29057        7.42330
C        -15.00390       94.41163        8.27350
C        -16.43154       94.07160        8.55957
O        -17.32569       94.74132        8.06685
O        -16.73955       92.94897        9.22736
H        -13.95558       95.18583        5.78435
H        -12.34124       93.94995        7.82297
H        -14.32069       92.36716        8.04289
H        -14.99187       93.07407        6.53142
H        -14.99262       95.37185        7.71860
H        -14.44461       94.55087        9.22205
N        -11.88864       92.45446        4.96715
C        -11.20960       91.32013        4.37906
H        -10.25601       91.13118        4.91798
H        -11.85347       90.41746        4.43349
H        -10.97453       91.52956        3.31359
H        -12.06407       93.26275        4.35779
Ca       -18.25545       91.81683        8.06779
O        -18.97209       89.30732        9.34622
H        -18.81804       88.54699        9.96038
H        -19.94481       89.28920        9.16533
O        -19.36564       92.78535       10.75189
H        -18.64383       93.26124       11.23406
H        -20.10447       92.72207       11.40729
O        -21.66825       91.39377        9.29407
H        -21.84619       92.04264        8.56944
H        -22.56430       91.15404        9.63927
O        -20.30887       94.75180        8.47745
H        -20.69465       95.58506        8.10721
H        -20.37635       94.09617        7.73874
O        -20.44574       90.83305        5.99615
H        -20.84520       90.19448        6.63806
H        -20.09701       90.26292        5.26481

Ca 1.0



