%chk=apoCaM-CA-Ng.loop1.water3.frame221.chk
%nprocshared=20
%mem=10GB
%nosave
#b3lyp/svp scf=(tight,noincore,xqc) Test 
#IOP(5/87=12) Density=Current Pop=(MK,readradii) iop(6/33=2) iop(6/42=6)

apoCaM-CA-Ng.loop1.water3.frame221 

   0  1 
C          1.39021       16.39405       83.51838
C          0.60898       17.29892       84.41952
O          1.14925       17.75519       85.41777
H          2.41333       16.22985       83.91972
H          0.87639       15.41214       83.44599
H          1.46479       16.84699       82.50880
N         -0.69724       17.57198       84.14229
C         -1.53460       18.39521       85.00484
C         -2.54618       17.51995       85.72165
O         -3.72959       17.82953       85.73782
C         -2.14190       19.57671       84.20855
C         -2.88614       19.15435       82.96457
O         -3.96138       18.34804       83.04213
O         -2.51357       19.54897       81.87063
H         -1.12660       17.13254       83.31337
H         -0.92931       18.83728       85.82449
H         -1.31206       20.25231       83.90392
H         -2.82218       20.15854       84.86316
N         -2.11153       16.40258       86.37793
C         -2.96860       15.55352       87.19364
C         -2.37186       15.33786       88.57310
O         -1.16999       15.11390       88.63611
C         -3.12192       14.13801       86.59691
C         -3.99555       14.04279       85.34067
C         -4.33250       12.55961       85.09553
C         -5.29225       12.34782       83.92293
N         -5.66588       10.93508       83.82064
H         -1.11720       16.14138       86.30015
H         -3.94863       16.02382       87.28272
H         -3.63461       13.52777       87.37251
H         -2.12905       13.66795       86.41817
H         -3.48254       14.50199       84.46859
H         -4.95042       14.58275       85.51834
H         -4.83141       12.15924       86.00754
H         -3.39853       11.98102       84.92401
H         -4.80732       12.67967       82.97948
H         -6.21359       12.95115       84.08279
H         -4.81558       10.34244       83.68018
H         -6.16021       10.63132       84.69227
H         -6.31181       10.80439       83.00961
N         -3.11439       15.18014       89.71660
C         -4.55523       15.38197       89.93355
C         -5.47270       14.58316       88.99871
O         -5.84268       15.08181       87.94806
C         -4.89469       16.88089       89.99933
C         -4.16945       17.55351       91.13739
O         -3.50304       16.81024       92.04564
O         -4.16868       18.77002       91.22916
H         -2.58410       14.88842       90.55361
H         -4.77115       15.03030       90.96017
H         -5.97606       17.01588       90.16964
H         -4.60555       17.36259       89.04209
N         -5.98115       13.36369       89.32645
C         -5.75802       12.73260       90.61242
C         -6.50534       11.42570       90.77796
O         -7.08133       10.92603       89.82202
H         -6.59524       12.90878       88.63390
H         -6.16873       13.42191       91.38075
H         -4.67096       12.56661       90.78158
N         -6.61371       10.82107       91.99444
C         -6.02546       11.34485       93.22624
C         -7.09130       12.00231       94.08565
O         -8.26475       11.95793       93.73879
C         -5.23145       10.23623       93.95632
C         -6.03962        9.05214       94.43491
O         -7.25096        8.99923       94.29167
O         -5.40615        8.03166       95.04287
H         -7.21063        9.98266       92.05101
H         -5.29599       12.14718       93.00043
H         -4.71585       10.67072       94.83841
H         -4.44953        9.86208       93.26030
N         -6.73901       12.67485       95.21720
C         -7.70574       13.33286       96.07983
C         -8.37762       14.55700       95.47654
O         -9.24221       15.09746       96.15218
H         -5.74874       12.69263       95.50320
H         -7.19254       13.67151       97.00564
H         -8.47863       12.58978       96.37456
N         -8.04592       15.07426       94.25285
C         -8.70504       16.24997       93.68296
C         -9.39473       15.86559       92.39233
O         -8.73356       15.44950       91.44915
C         -7.69911       17.39622       93.43816
C         -7.10894       17.90532       94.75399
O         -8.35886       18.46488       92.80530
H         -7.30151       14.63177       93.69477
H         -9.47714       16.64295       94.38054
H         -6.87927       17.00993       92.78570
H         -7.70113       18.90404       92.20500
H         -6.38860       18.72559       94.54951
H         -7.91663       18.30130       95.40767
H         -6.58242       17.09064       95.28962
N        -10.74978       15.97948       92.29282
C        -11.49887       15.61367       91.09796
C        -11.21484       16.51666       89.89148
O        -11.69829       16.18468       88.82163
C        -13.03401       15.46869       91.40476
C        -13.75474       16.70115       92.02650
C        -13.25062       14.27009       92.34953
C        -13.74661       17.95609       91.16814
H        -11.26336       16.28721       93.12953
H        -11.15605       14.59989       90.78742
H        -13.55063       15.21149       90.45348
H        -13.33904       16.95496       93.02349
H        -14.82238       16.42988       92.18325
H        -12.82664       13.34390       91.90684
H        -12.77049       14.44242       93.33629
H        -14.33534       14.09563       92.51579
H        -12.71884       18.34528       91.07488
H        -14.18323       17.74727       90.16874
H        -14.35321       18.74365       91.66434
N        -10.45133       17.65519       89.97384
C        -10.15792       18.50398       88.81089
C         -8.65491       18.66682       88.59906
O         -7.87074       18.23963       89.42370
C        -10.84915       19.88428       88.95114
C        -10.36751       20.67499       90.17933
O        -12.23773       19.69196       89.01662
H        -10.08030       17.94678       90.88413
H        -10.55581       18.02923       87.88855
H        -10.62075       20.47863       88.03745
H        -12.66223       20.58842       88.97809
H        -10.61874       20.14628       91.12139
H         -9.27135       20.84054       90.13511
H        -10.86212       21.66862       90.20194
N         -8.20146       19.27972       87.46383
C         -6.78565       19.48479       87.13394
C         -6.09667       20.47213       88.07712
O         -6.74375       21.00813       88.96871
C         -6.66252       19.98774       85.65754
C         -7.26934       21.38316       85.43251
O         -7.28739       19.07860       84.78916
H         -8.91244       19.56314       86.77760
H         -6.26114       18.50544       87.19271
H         -5.59210       20.07323       85.36509
H         -6.67781       18.29969       84.70109
H         -6.76385       22.14128       86.06501
H         -7.13307       21.68281       84.37191
H         -8.35480       21.40519       85.65704
N         -4.79110       20.82394       87.86775
C         -4.12257       21.91750       88.56839
C         -2.73963       21.55222       89.10900
O         -2.09592       22.43215       89.66177
C         -4.07973       23.15558       87.63676
C         -3.32381       22.96429       86.30977
C         -3.47324       24.21308       85.42669
C         -2.74735       24.05091       84.08423
N         -2.95383       25.22584       83.23581
H         -4.28346       20.38126       87.08804
H         -4.72664       22.23924       89.44555
H         -3.63908       24.01739       88.18480
H         -5.13351       23.42069       87.39899
H         -3.75687       22.11104       85.75132
H         -2.24996       22.76127       86.51330
H         -3.06690       25.10129       85.95789
H         -4.55507       24.38221       85.22706
H         -3.13318       23.15061       83.55556
H         -1.65868       23.91244       84.26628
H         -3.97209       25.34119       83.02429
H         -2.59514       26.08519       83.71202
H         -2.43732       25.09644       82.33597
N         -2.22508       20.28669       89.03637
C         -0.91492       19.94414       89.59237
C          0.19776       20.63366       88.83233
O          0.33430       20.42005       87.63561
C         -0.70638       18.41455       89.58819
C          0.68761       17.94435       90.07277
C          1.18545       18.56129       91.36586
O          0.52030       18.42715       92.53081
O          2.23144       19.19040       91.35866
H         -2.79179       19.53475       88.61991
H         -0.89295       20.25632       90.66036
H         -0.85809       18.00979       88.56350
H         -1.49582       17.97408       90.22286
H          1.42366       18.19073       89.27626
H          0.66895       16.83764       90.17060
N          1.06610       21.44872       89.49183
C          2.19364       22.06927       88.83482
H          2.86216       21.28569       88.41720
H          1.84247       22.73567       88.02033
H          2.77328       22.66885       89.56901
H          0.94253       21.61455       90.50230
Ca        -1.41171       17.32351       92.60131
O         -2.39808       19.90496       93.95817
H         -3.10465       20.54670       94.22015
H         -2.38355       19.94117       92.96908
O         -1.10494       18.53109       96.45645
H         -0.51416       18.52711       97.25083
H         -1.86545       19.10937       96.71685
O         -3.80187       17.17645       95.36391
H         -4.07793       17.96131       95.90110
H         -4.25264       16.40872       95.79745

Ca 1.0



