%chk=apoCaM-CA-Ng.loop2.water4.frame689.chk
%nprocshared=20
%mem=10GB
%nosave
#b3lyp/svp scf=(tight,noincore,xqc) Test 
#IOP(5/87=12) Density=Current Pop=(MK,readradii) iop(6/33=2) iop(6/42=6)

apoCaM-CA-Ng.loop2.water4.frame689 

   -2  1 
C         89.47905       78.75792       74.47295
C         89.31116       80.17904       74.02223
O         89.90607       80.56615       73.02682
H         89.93258       78.74215       75.48546
H         88.48916       78.25425       74.50957
H         90.13531       78.19643       73.77430
N         88.46889       81.00654       74.69920
C         88.20018       82.38384       74.31058
C         86.87429       82.41097       73.58762
O         85.88871       82.91965       74.10560
C         88.25799       83.30085       75.55069
C         87.97123       84.73720       75.19763
O         86.93165       85.37674       75.76763
O         88.67216       85.32700       74.39059
H         87.93248       80.61517       75.49015
H         88.96077       82.75837       73.58978
H         89.27323       83.24374       75.99863
H         87.52218       82.95671       76.31041
N         86.80940       81.87236       72.33742
C         85.59611       81.81407       71.54157
C         85.28822       80.36160       71.19119
O         86.19256       79.53907       71.24877
C         85.78191       82.67813       70.28942
H         87.67344       81.49446       71.91914
H         84.75575       82.22366       72.13880
H         84.87912       82.67529       69.64677
H         85.98355       83.72814       70.59621
H         86.64468       82.31725       69.69008
N         84.02844       79.91510       70.91634
C         82.84535       80.76294       70.84311
C         81.99022       80.62744       72.08335
O         82.20428       79.73390       72.89113
C         82.03450       80.43399       69.56815
C         81.56321       78.99826       69.52254
O         80.74355       78.51483       70.47591
O         81.91858       78.26623       68.61288
H         83.90155       78.89762       70.80209
H         83.12995       81.82781       70.79001
H         82.67160       80.63610       68.68015
H         81.14384       81.09411       69.50463
N         80.96907       81.50638       72.27526
C         79.99615       81.38615       73.34094
C         80.54608       81.54945       74.74351
O         81.72804       81.81907       74.90355
H         80.82991       82.26356       71.58890
H         79.52168       80.40172       73.23411
H         79.22248       82.17193       73.20146
N         79.73127       81.44955       75.83856
C         78.31491       81.07974       75.77574
C         77.98379       79.98824       76.77877
O         78.81238       79.65554       77.61536
C         77.39314       82.30557       75.97291
C         77.45093       82.92466       77.34949
N         78.54989       83.58418       77.78212
O         76.47092       82.85032       78.07600
H         80.14433       81.64145       76.76419
H         78.06697       80.67518       74.77800
H         76.34904       81.96847       75.78982
H         77.61642       83.08051       75.20833
H         79.37317       83.70377       77.17697
H         78.56567       84.00621       78.72219
N         76.76015       79.39043       76.74757
C         76.31165       78.42939       77.73823
C         76.11497       77.04185       77.17853
O         75.60037       76.21268       77.91537
H         76.09652       79.64144       75.99854
H         75.34692       78.80007       78.14766
H         77.02147       78.34523       78.58865
N         76.53831       76.68292       75.92885
C         76.37937       75.32503       75.41082
C         77.72045       74.62427       75.28670
O         78.76207       75.24713       75.43755
C         75.66443       75.34044       74.03211
C         74.26322       75.94392       74.10583
O         76.43173       76.06530       73.10280
H         77.02316       77.37415       75.33856
H         75.77869       74.71271       76.11658
H         75.55205       74.28509       73.68887
H         76.34042       75.61639       72.22161
H         73.78853       75.89651       73.10167
H         73.63700       75.36842       74.81886
H         74.30670       77.00634       74.42493
N         77.74107       73.29804       74.97500
C         78.94456       72.54214       74.66912
C         78.87791       72.21036       73.19393
O         77.92088       71.59075       72.74977
C         79.06058       71.24476       75.53024
C         80.22125       70.34647       75.00515
C         79.27419       71.60233       77.01288
C         80.33898       68.98834       75.69334
H         76.84015       72.80665       74.87213
H         79.85781       73.15094       74.85565
H         78.11223       70.67170       75.43072
H         81.19086       70.88547       75.08187
H         80.03950       70.10745       73.93677
H         78.44813       72.23990       77.38878
H         79.29486       70.68963       77.64323
H         80.23603       72.14461       77.14782
H         81.13494       68.39728       75.19079
H         80.61755       69.09307       76.75961
H         79.38234       68.43082       75.60435
N         79.90752       72.57278       72.38830
C         79.99449       72.28249       70.97030
C         81.13952       71.32061       70.68280
O         81.31369       70.98601       69.51901
C         80.26807       73.60157       70.22514
C         79.16207       74.60387       70.36960
O         79.33361       75.70205       71.13219
O         78.10384       74.43446       69.78597
H         80.70271       73.06482       72.80737
H         79.05671       71.81251       70.59882
H         80.43547       73.42634       69.14028
H         81.20155       74.03917       70.63890
N         81.96214       70.83131       71.66469
C         83.09533       69.95771       71.38988
C         84.38447       70.56520       71.94762
O         85.05414       69.91351       72.73739
C         82.75812       68.54098       71.91919
C         83.85987       67.51484       71.74118
C         84.22874       66.69421       72.82386
C         84.52052       67.35193       70.50858
C         85.23319       65.73299       72.67532
C         85.53887       66.40353       70.37199
C         85.89209       65.59213       71.45233
H         81.79747       71.07124       72.65113
H         83.24615       69.85643       70.29663
H         81.87054       68.18753       71.35088
H         82.46331       68.59679       72.99074
H         83.72891       66.78493       73.78050
H         84.26584       67.96319       69.65440
H         85.50098       65.09678       73.50923
H         86.05339       66.29625       69.42590
H         86.67471       64.85278       71.34094
N         84.83120       71.80435       71.55393
C         86.11972       72.37933       71.93643
C         86.36187       72.56055       73.42426
O         87.46447       72.94330       73.79123
C         86.09638       73.77168       71.29151
C         85.26057       73.53919       70.05708
C         84.14809       72.65312       70.60011
H         86.90476       71.72480       71.49683
H         85.50289       74.45978       71.93893
H         87.09547       74.22571       71.12223
H         84.90457       74.45656       69.54220
H         85.87213       72.93881       69.34708
H         83.38344       73.24416       71.15057
H         83.69862       72.10546       69.74804
N         85.36616       72.38286       74.33230
C         85.54317       72.59454       75.75564
C         86.39805       71.47314       76.30516
O         87.43739       71.75431       76.88563
C         84.18341       72.71301       76.49554
C         83.45958       74.06786       76.24566
C         82.75992       74.27001       74.92462
O         82.18131       75.45649       74.65673
O         82.63072       73.36359       74.12756
H         84.44811       72.08730       74.00213
H         86.06628       73.56160       75.93530
H         84.42667       72.71853       77.58102
H         83.51571       71.84287       76.31059
H         84.19203       74.88957       76.39572
H         82.66803       74.18505       77.01624
N         86.04066       70.17191       76.11320
C         86.84481       69.05056       76.55719
H         87.75506       69.37110       77.10690
H         86.24083       68.40238       77.22437
H         87.16557       68.45892       75.67343
H         85.17326       69.95906       75.59793
Ca        80.74451       75.65370       72.91265
O         83.22029       76.19182       71.12706
H         84.15712       76.37733       71.38657
H         83.19479       76.37068       70.15402
O         80.86749       77.92005       75.73658
H         79.94774       77.55536       75.73665
H         81.06119       78.09561       76.69113
O         79.11807       78.05062       73.08015
H         78.53975       77.38445       73.52236
H         78.58385       78.37827       72.31394
O         84.11848       77.64006       74.03815
H         84.19023       78.59651       74.28247
H         84.32833       77.15599       74.87579

Ca 1.0



