%chk=apoCaM-CA-Ng.loop2.water2.frame871.chk
%nprocshared=20
%mem=10GB
%nosave
#b3lyp/svp scf=(tight,noincore,xqc) Test 
#IOP(5/87=12) Density=Current Pop=(MK,readradii) iop(6/33=2) iop(6/42=6)

apoCaM-CA-Ng.loop2.water2.frame871 

   -2  1 
C         51.29336       17.12963       -3.51612
C         49.88003       17.07804       -4.01247
O         49.54857       16.19121       -4.78706
H         51.75807       18.09559       -3.80239
H         51.29794       17.03471       -2.40945
H         51.89231       16.29828       -3.94551
N         48.97520       18.00535       -3.58757
C         47.57426       17.99717       -4.00645
C         46.84455       16.73913       -3.51660
O         45.73608       16.49459       -3.96881
C         46.89968       19.30827       -3.52374
C         45.49633       19.53869       -4.02522
O         45.26218       20.48402       -4.76164
O         44.47868       18.75913       -3.61553
H         49.30812       18.75049       -2.95489
H         47.56538       18.00228       -5.11973
H         47.52711       20.14994       -3.89618
H         46.89978       19.35488       -2.41331
N         47.41147       15.88344       -2.61266
C         46.78420       14.65751       -2.13725
C         46.63715       14.75167       -0.62583
O         47.65089       14.94646        0.03154
C         47.66512       13.46608       -2.52048
H         48.33698       16.09917       -2.21772
H         45.80920       14.50043       -2.63329
H         48.67959       13.56380       -2.07778
H         47.20933       12.51718       -2.16853
H         47.76723       13.41914       -3.62620
N         45.44384       14.67772        0.03529
C         44.14749       14.38601       -0.57778
C         42.98615       14.87316        0.28717
O         43.21378       15.40206        1.36401
C         44.04412       12.87414       -0.90371
C         44.19025       11.99020        0.30939
O         43.19978       11.14508        0.64832
O         45.22033       12.00018        0.96523
H         45.48146       14.83102        1.05369
H         44.04209       14.98644       -1.50458
H         44.83720       12.58885       -1.62318
H         43.06946       12.66230       -1.39113
N         41.70680       14.81408       -0.18720
C         40.55690       15.37865        0.50871
C         39.37631       14.42622        0.49996
O         38.41224       14.73189       -0.18737
H         41.54925       14.43823       -1.13455
H         40.25605       16.28107       -0.06746
H         40.79310       15.72368        1.53488
N         39.33455       13.24634        1.18412
C         40.36308       12.77418        2.09865
C         40.26369       13.55010        3.40564
O         39.24652       13.45716        4.07986
C         40.15941       11.26005        2.34174
C         41.26309       10.56915        3.10034
N         41.16269        9.24373        3.34667
O         42.25486       11.17948        3.46927
H         38.50663       12.64682        1.03339
H         41.35162       12.89540        1.60910
H         40.10051       10.75569        1.35239
H         39.19366       11.09536        2.86854
H         40.33740        8.71182        3.03371
H         41.91049        8.74412        3.84321
N         41.27066       14.37053        3.80433
C         41.21533       15.19239        5.00128
C         41.54615       14.43964        6.27038
O         41.61023       15.08296        7.30838
H         42.08837       14.47237        3.19721
H         40.23625       15.71464        5.06972
H         42.00023       15.97526        4.91158
N         41.83053       13.10505        6.27006
C         42.33330       12.39193        7.43844
C         43.74416       11.82953        7.11950
O         44.40008       12.70794        6.25658
C         41.35109       11.26342        7.83691
C         40.03195       11.84270        8.34677
O         41.06660       10.43467        6.73985
H         41.75761       12.57083        5.39820
H         42.44725       13.09060        8.29733
H         41.77410       10.65618        8.66884
H         41.89145        9.93063        6.53865
H         40.21240       12.47822        9.23944
H         39.53720       12.45115        7.56006
H         39.34806       11.01621        8.63547
N         44.54551       11.67745        8.34188
C         45.79953       10.90244        8.19044
C         45.50812        9.40937        8.25778
O         44.91159        8.97817        9.23575
C         46.77350       11.33733        9.32759
C         48.06293       10.47771        9.43718
C         47.12901       12.83080        9.18413
C         48.98265       10.51320        8.21686
H         43.97906       11.31287        9.14251
H         46.29626       11.14109        7.22514
H         46.24319       11.21031       10.29801
H         47.78606        9.42002        9.63612
H         48.64647       10.82780       10.31712
H         46.21574       13.46038        9.21617
H         47.79326       13.15256       10.01391
H         47.64132       13.02944        8.21896
H         49.86578        9.87534        8.42116
H         48.46425       10.12394        7.32005
H         49.35340       11.53768        8.01600
N         45.92830        8.55578        7.27188
C         45.64148        7.12132        7.29922
C         46.88828        6.26663        7.46709
O         46.72180        5.08902        7.75650
C         44.88311        6.68073        6.03310
C         43.63812        7.48328        5.81025
O         42.43125        6.88585        5.81923
O         43.72031        8.67943        5.58776
H         46.45842        8.93430        6.47509
H         44.99825        6.89408        8.17799
H         44.60958        5.60693        6.12988
H         45.53434        6.79531        5.13927
N         48.15856        6.74965        7.30252
C         49.33303        5.92784        7.59020
C         50.62553        6.60441        7.11196
O         50.85764        7.73565        7.51264
C         49.42665        5.72060        9.12311
C         50.61546        4.87883        9.51511
C         51.70223        5.46560       10.18476
C         50.65406        3.50793        9.21111
C         52.81533        4.69617       10.53118
C         51.76730        2.73952        9.56579
C         52.84840        3.33415       10.22229
H         48.29785        7.71422        6.97402
H         49.20208        4.95374        7.08328
H         48.51079        5.24866        9.53691
H         49.50560        6.72826        9.58904
H         51.69487        6.52153       10.42517
H         49.82333        3.03601        8.70080
H         53.65304        5.15795       11.03711
H         51.79334        1.68372        9.32960
H         53.71173        2.74031       10.49212
N         51.55991        5.97168        6.32242
C         52.87899        6.53580        6.03264
C         52.92049        7.78712        5.17253
O         54.01696        8.27351        4.92941
C         53.61722        5.40160        5.31417
C         52.99096        4.18007        5.94559
C         51.51977        4.57404        5.93242
H         53.36710        6.73906        7.01314
H         53.32381        5.38853        4.23820
H         54.72471        5.46320        5.37956
H         53.21624        3.22139        5.43333
H         53.33622        4.11692        7.00430
H         51.10890        4.50305        4.90098
H         50.97499        3.90038        6.61511
N         51.79544        8.36079        4.65895
C         51.83639        9.54659        3.80185
C         52.44690       10.77797        4.47272
O         52.65646       11.76067        3.77339
C         50.42563        9.90274        3.27813
C         49.46051       10.24317        4.42185
C         48.13573       10.70214        3.92133
O         47.03412       10.00801        4.24122
O         48.03395       11.76548        3.32991
H         50.89103        7.90805        4.83881
H         52.47256        9.29696        2.92387
H         50.01280        9.04871        2.69753
H         50.50766       10.77304        2.58959
H         49.86964       11.05663        5.05856
H         49.30051        9.35617        5.06685
N         52.74246       10.82613        5.80319
C         53.32801       12.00311        6.40802
H         54.30972       12.22206        5.93563
H         52.65200       12.87491        6.27696
H         53.48626       11.83408        7.49396
H         52.54366       10.02509        6.41729
Ca        45.30112       11.30000        4.74520
O         45.18023        8.34151        2.62395
H         44.46978        7.71662        2.33282
H         45.85191        8.31299        1.89682
O         44.87138       13.84673        3.38617
H         44.33237       14.34668        4.04804
H         45.80823       14.08787        3.59642

Ca 1.0



