%chk=apoCaM-CA-Ng.loop1.water3.frame1061.chk
%nprocshared=20
%mem=10GB
%nosave
#b3lyp/svp scf=(tight,noincore,xqc) Test 
#IOP(5/87=12) Density=Current Pop=(MK,readradii) iop(6/33=2) iop(6/42=6)

apoCaM-CA-Ng.loop1.water3.frame1061 

   0  1 
C          0.99384       67.64146       52.93832
C          1.04204       66.96507       54.27255
O          1.80649       67.40214       55.12146
H         -0.01817       68.06535       52.78047
H          1.73835       68.46719       52.89396
H          1.22738       66.91301       52.13432
N          0.27927       65.85737       54.51940
C          0.30912       65.15893       55.80076
C          1.18196       63.92014       55.69857
O          0.80897       62.85599       56.17543
C         -1.11716       64.81970       56.28967
C         -2.00698       66.02262       56.42526
O         -2.54430       66.32973       57.62103
O         -2.28463       66.70065       55.44883
H         -0.29662       65.46965       53.75688
H          0.79806       65.80241       56.56186
H         -1.04765       64.31577       57.27912
H         -1.59121       64.11254       55.57386
N          2.40025       64.01033       55.10028
C          3.36711       62.92347       55.07911
C          3.85447       62.62825       56.49177
O          3.76397       61.47617       56.88986
C          4.56823       63.20373       54.13811
C          4.17799       63.63635       52.70732
C          3.19636       62.68056       52.00550
C          2.74258       63.19806       50.62997
N          3.83794       63.27149       49.66342
H          2.64926       64.89696       54.64525
H          2.87246       62.01435       54.67139
H          5.17492       62.27225       54.08112
H          5.22700       63.99522       54.54880
H          5.11613       63.72014       52.11972
H          3.71951       64.64560       52.74265
H          2.27150       62.60127       52.61352
H          3.64422       61.66794       51.91007
H          2.27289       64.20122       50.74425
H          1.96631       62.50395       50.23835
H          4.55216       63.97238       49.96141
H          4.27985       62.33059       49.55090
H          3.45067       63.57554       48.74102
N          4.34280       63.57916       57.35209
C          4.42788       65.01950       57.09438
C          3.42042       65.76565       57.96406
O          2.73034       65.13789       58.75619
C          5.86387       65.52507       57.27852
C          6.34701       65.32918       58.67354
O          5.67276       65.87327       59.69975
O          7.35044       64.66818       58.88960
H          4.61253       63.26001       58.29674
H          4.17999       65.26353       56.05877
H          5.91081       66.60691       57.04072
H          6.53673       64.99398       56.56948
N          3.22893       67.10734       57.81578
C          2.17100       67.81980       58.51626
C          2.49604       68.16761       59.95256
O          3.61667       67.98219       60.40304
H          3.75876       67.61154       57.08897
H          1.23438       67.22430       58.46146
H          1.97659       68.78418       57.99996
N          1.51040       68.70923       60.72353
C          1.67960       69.21348       62.08810
C          1.03874       70.60471       62.19664
O          0.34447       70.99610       61.26820
C          0.96137       68.23824       63.04826
C          1.62730       66.89389       63.05955
O          2.90681       66.78104       63.46624
O          1.00882       65.89737       62.72236
H          0.56325       68.75137       60.31490
H          2.75847       69.28287       62.34602
H         -0.10276       68.13701       62.73851
H          0.95789       68.59560       64.08974
N          1.15030       71.42161       63.28829
C          2.05027       71.24276       64.41378
C          3.44896       71.62171       64.01485
O          3.63866       72.75563       63.59500
H          0.58760       72.28767       63.29379
H          1.98118       70.23916       64.86110
H          1.76162       71.95997       65.21356
N          4.48383       70.74356       64.13130
C          5.86044       71.09542       63.78560
C          6.33049       70.26469       62.60776
O          5.70550       69.25682       62.31169
C          6.75248       70.93695       65.04155
C          8.20539       71.36635       64.82155
O          6.71968       69.60472       65.48149
H          4.28844       69.79031       64.47696
H          5.90307       72.15753       63.45974
H          6.31157       71.59759       65.82465
H          6.99772       69.60320       66.43434
H          8.76273       71.29170       65.77883
H          8.70990       70.70580       64.08682
H          8.24462       72.41938       64.47231
N          7.37764       70.69231       61.83502
C          7.88072       70.01371       60.64050
C          8.58353       68.72142       61.02764
O          7.96030       67.85201       61.60390
C          6.74428       69.77960       59.58881
C          6.05814       71.11998       59.21309
C          7.28009       69.07474       58.32660
C          4.67302       70.91961       58.59468
H          7.82169       71.59204       62.07332
H          8.63355       70.67973       60.16235
H          5.98703       69.10716       60.02945
H          6.71713       71.70658       58.53563
H          5.87921       71.73413       60.11971
H          6.46791       68.89168       57.59562
H          8.06447       69.69038       57.83724
H          7.71639       68.08626       58.58205
H          4.00916       70.43719       59.34262
H          4.23145       71.90615       58.34227
H          4.70082       70.29790       57.67915
N          9.88318       68.50862       60.67918
C         10.55199       67.21662       60.85686
C         10.89625       66.85583       62.30445
O         11.42105       65.76780       62.50646
C         11.85344       67.17043       60.00194
C         12.95259       68.10841       60.52771
O         11.57120       67.51172       58.66860
H         10.36316       69.25140       60.15073
H          9.87442       66.43722       60.44464
H         12.27951       66.14038       60.02850
H         11.02875       66.77291       58.28816
H         13.25502       67.82418       61.55800
H         13.85151       68.03041       59.88079
H         12.61836       69.16584       60.53690
N         10.74292       67.72988       63.33993
C         11.33567       67.48271       64.65611
C         10.72566       66.28478       65.37237
O          9.56998       66.35222       65.76092
C         11.22032       68.75378       65.54397
C         11.89383       68.59147       66.91482
O         11.76349       69.87077       64.88368
H         10.31278       68.64822       63.15692
H         12.42052       67.29111       64.49364
H         10.14146       68.96204       65.71837
H         12.71599       69.67124       64.68608
H         12.97873       68.38785       66.79236
H         11.76808       69.52437       67.50389
H         11.43524       67.75966       67.48937
N         11.47764       65.16971       65.62689
C         11.03511       64.04421       66.44984
C          9.72786       63.48456       65.92166
O          8.71389       63.54811       66.60419
C         10.97914       64.48903       67.93123
C         10.80961       63.30899       68.90690
C         10.88955       63.79979       70.36153
C         10.75676       62.67509       71.40385
N         11.85337       61.70647       71.32871
H         12.43434       65.12131       65.24468
H         11.81178       63.24839       66.39408
H         10.17868       65.24424       68.08773
H         11.95484       64.96927       68.16731
H         11.62828       62.58436       68.71582
H          9.83730       62.79838       68.74310
H         10.06699       64.52787       70.53371
H         11.85634       64.32424       70.52631
H          9.78242       62.15267       71.28343
H         10.77003       63.14588       72.41224
H         11.80977       61.16383       70.43755
H         12.77514       62.19479       71.40688
H         11.76448       61.03159       72.12242
N          9.68077       62.96135       64.66785
C          8.43940       62.56188       64.02278
C          8.19290       63.47033       62.81276
O          7.84419       64.72053       63.32459
C          8.38406       61.05968       63.70810
C          8.28087       60.24034       64.99985
C          8.10578       58.78198       64.69819
O          9.00795       57.88804       65.14300
O          7.13570       58.39723       64.06370
H         10.55494       62.90031       64.12288
H          7.55921       62.74065       64.68173
H          9.25888       60.71241       63.13255
H          7.46440       60.87465       63.10818
H          7.39994       60.57861       65.58917
H          9.19534       60.39434       65.61173
N          9.32521       63.63903       61.88161
C          9.64735       62.43719       61.11345
H         10.35871       61.80923       61.68189
H          8.73252       61.87337       60.82697
H         10.18637       62.72091       60.18309
H          9.01505       64.34926       61.17932
Ca         6.67986       65.55580       61.62815
O          3.49988       64.20193       61.62639
H          3.22835       65.09998       61.31120
H          3.49601       63.64035       60.81136
O          4.90675       64.54769       64.47091
H          5.05053       63.64539       64.09075
H          5.55304       64.60638       65.21881
O          6.44820       66.99689       64.52345
H          7.30985       66.85390       64.98260
H          6.69368       67.53383       63.73450

Ca 1.0



