%chk=apoCaM-CA-Ng.loop3.water5.frame253.chk
%nprocshared=20
%mem=10GB
%nosave
#b3lyp/svp scf=(tight,noincore,xqc) Test 
#IOP(5/87=12) Density=Current Pop=(MK,readradii) iop(6/33=2) iop(6/42=6)

apoCaM-CA-Ng.loop3.water5.frame253 

   0  1 
C         37.89177       57.51215       19.41996
C         38.23658       58.20528       18.13744
O         37.33482       58.57358       17.40026
H         36.79040       57.41038       19.53100
H         38.35231       56.50360       19.42800
H         38.28340       58.09812       20.27762
N         39.54451       58.42247       17.81332
C         40.00203       59.11892       16.61181
C         39.71024       58.36858       15.31364
O         40.01678       58.91985       14.26526
C         39.44748       60.56310       16.56021
C         39.81163       61.33870       17.79558
O         38.93734       61.80662       18.50729
O         41.10546       61.52852       18.11850
H         40.26757       58.10387       18.47687
H         41.11100       59.20370       16.66416
H         38.34536       60.55712       16.43096
H         39.87857       61.09597       15.68542
N         39.18182       57.10621       15.28546
C         38.92529       56.38045       14.04021
C         37.46076       56.00710       13.87670
O         37.12833       55.40963       12.86156
C         39.81678       55.12827       13.96119
C         41.30192       55.51471       13.96356
C         42.19683       54.30104       13.68827
C         43.69631       54.64667       13.71268
N         44.06143       55.65020       12.70892
H         38.98301       56.61391       16.16781
H         39.17066       57.01219       13.15843
H         39.59677       54.60495       13.00407
H         39.59718       54.43263       14.80130
H         41.56985       55.96804       14.94286
H         41.46102       56.26486       13.16103
H         41.93867       53.87373       12.69409
H         42.00697       53.52425       14.46067
H         44.26438       53.71192       13.51018
H         43.98334       55.01115       14.72349
H         43.74693       55.34802       11.75840
H         43.64612       56.57919       12.94594
H         45.10082       55.76072       12.70231
N         36.52000       56.36480       14.79391
C         35.10031       56.11402       14.63199
C         34.40113       57.45940       14.47516
O         34.57173       58.33620       15.31093
C         34.56809       55.28555       15.82510
C         33.07981       55.12023       15.71199
O         32.38171       56.11322       15.72857
O         32.46182       53.93853       15.56762
H         36.79565       56.88818       15.63340
H         34.89690       55.50757       13.72145
H         34.79350       55.79760       16.78644
H         35.06352       54.29023       15.83139
N         33.56838       57.66474       13.41606
C         32.85826       58.90312       13.14690
C         31.95913       59.34487       14.28423
O         32.10884       60.47167       14.73524
H         33.42814       56.89572       12.74585
H         32.23026       58.75608       12.24017
H         33.59476       59.70386       12.91780
N         30.98918       58.52634       14.78760
C         30.04622       58.95733       15.82246
C         30.52969       58.71951       17.25755
O         29.75485       58.95248       18.17578
C         28.63689       58.36424       15.59481
C         28.51368       56.84142       15.80812
N         27.15164       56.50267       16.19868
O         28.81590       56.15333       14.62594
H         30.89117       57.58425       14.38461
H         29.89184       60.05624       15.72854
H         28.24314       58.64528       14.59706
H         27.98010       58.87316       16.33431
H         26.93645       56.96479       17.11136
H         27.11943       55.47502       16.36989
N         31.80049       58.32366       17.54286
C         32.29993       58.13195       18.89559
C         31.66750       56.95068       19.59648
O         31.12293       57.11827       20.67812
H         32.47655       58.21401       16.78060
H         32.15956       59.06534       19.48407
H         33.39114       57.92663       18.84348
N         31.74395       55.71008       19.04106
C         31.28716       54.48457       19.68654
C         30.09813       53.89649       18.95681
O         29.64145       54.46379       17.97391
C         32.44756       53.46241       19.69544
C         33.65643       53.95710       20.44311
C         33.57413       54.24416       21.81529
C         34.88428       54.11240       19.77970
C         34.70261       54.68322       22.51213
C         36.01165       54.54771       20.47935
C         35.92692       54.83583       21.84538
O         37.02537       55.25298       22.50597
H         32.17746       55.62052       18.11686
H         30.95242       54.68552       20.72708
H         32.71700       53.23001       18.64004
H         32.13718       52.50988       20.17150
H         32.63882       54.12213       22.34686
H         34.97293       53.89130       18.72309
H         34.62454       54.89879       23.57012
H         36.95241       54.65558       19.95773
H         37.00884       55.45783       23.45173
N         29.53669       52.73712       19.40747
C         28.37035       52.12559       18.78504
C         27.20500       53.07618       19.00196
O         26.65900       53.57194       18.02753
C         28.13155       50.68155       19.34144
C         29.38545       49.79232       19.07834
C         26.90058       50.03287       18.67820
C         29.31527       48.40474       19.72069
H         29.94328       52.28863       20.24025
H         28.56098       52.01230       17.69477
H         27.95886       50.74847       20.43818
H         30.29426       50.26916       19.49557
H         29.54315       49.67817       17.98362
H         27.05173       49.93138       17.58236
H         26.68588       49.03520       19.10869
H         25.99422       50.62774       18.84418
H         30.26211       47.86056       19.51768
H         29.19181       48.49896       20.82035
H         28.48979       47.79449       19.30528
N         26.82934       53.44082       20.26522
C         25.85021       54.49693       20.53302
C         24.44716       54.20103       20.01713
O         23.61520       55.09550       20.07914
C         25.80023       54.81846       22.03633
O         25.34291       53.70637       22.75616
H         27.32832       53.01472       21.06156
H         26.20891       55.41317       20.01207
H         25.11927       55.68404       22.20362
H         26.82190       55.09497       22.38146
H         25.26288       54.00454       23.69941
N         24.11620       52.99557       19.46899
C         22.82326       52.65662       18.88862
C         22.46946       53.47973       17.65086
O         21.39780       53.23870       17.11126
C         21.71703       52.73626       19.95220
H         24.81187       52.24922       19.46677
H         22.86863       51.59414       18.55793
H         21.98028       52.09067       20.81729
H         21.56164       53.77253       20.31304
H         20.75513       52.37122       19.53325
N         23.28624       54.45306       17.13448
C         22.90237       55.28703       16.00015
C         23.90981       55.22273       14.86701
O         24.98234       54.65728       15.02623
C         22.76917       56.73392       16.48304
H         24.19743       54.65308       17.56516
H         21.92039       54.96118       15.59543
H         23.74278       57.09833       16.87918
H         22.44591       57.40330       15.65913
H         22.01454       56.78992       17.29610
N         23.59286       55.79232       13.66511
C         24.47273       55.88684       12.50140
C         24.88755       54.52796       11.92427
O         25.61299       54.51512       10.94025
C         25.65657       56.83291       12.83446
C         26.44984       57.29290       11.59494
C         27.43146       58.37534       11.94152
O         26.99232       59.55003       12.43461
O         28.62605       58.20985       11.75231
H         22.65973       56.22135       13.56816
H         23.89255       56.39968       11.70165
H         26.33811       56.37232       13.57796
H         25.21303       57.74628       13.29109
H         25.75165       57.70714       10.83607
H         26.99723       56.44208       11.14558
N         24.44211       53.34093       12.42985
C         24.85094       52.07177       11.86696
H         25.95257       51.95676       11.95284
H         24.36410       51.23821       12.41630
H         24.55375       52.01541       10.79821
H         23.78608       53.30990       13.21956
Ca        30.32171       54.48509       15.07178
O         27.73181       52.67803       15.01883
H         26.96243       52.38558       15.56837
H         27.52936       53.61952       14.79119
O         28.83173       54.02621       12.19096
H         28.74425       54.99813       12.02647
H         27.90095       53.70484       12.28456
O         31.08355       52.07652       12.89541
H         31.22984       51.16011       13.23960
H         31.49183       52.07141       11.99337
O         30.59551       51.52875       16.08098
H         30.05108       50.83126       15.63652
H         31.48320       51.11011       16.20866
O         31.56551       55.14085       12.51476
H         31.26198       55.90024       11.95674
H         32.30056       54.72502       11.99863

Ca 1.0



