%chk=apoCaM-CA-Ng.loop1.water2.frame941.chk
%nprocshared=20
%mem=10GB
%nosave
#b3lyp/svp scf=(tight,noincore,xqc) Test 
#IOP(5/87=12) Density=Current Pop=(MK,readradii) iop(6/33=2) iop(6/42=6)

apoCaM-CA-Ng.loop1.water2.frame941 

   0  1 
C          2.64985       80.15923       52.07412
C          3.41592       79.59731       53.23777
O          3.32436       78.40936       53.50939
H          1.96199       80.95542       52.43047
H          3.35957       80.60335       51.34312
H          2.05717       79.37192       51.56397
N          4.21218       80.42410       53.96403
C          5.02395       80.01311       55.10663
C          4.56419       80.78701       56.37607
O          4.33534       82.13586       56.08279
C          6.53058       80.12455       54.74251
C          7.06539       81.46417       54.29859
O          8.24394       81.55397       53.99495
O          6.28502       82.55415       54.19760
H          4.24717       81.41099       53.67121
H          4.86309       78.93693       55.33796
H          6.71619       79.41592       53.90579
H          7.14438       79.77384       55.59650
N          5.46068       80.64657       57.53880
C          4.77387       80.74438       58.84999
C          5.62625       81.61201       59.76097
O          6.78966       81.27986       59.94673
C          4.61944       79.33052       59.48056
C          3.86420       79.28386       60.82380
C          2.35766       79.52835       60.66072
C          1.61837       79.34863       61.99518
N          0.17263       79.47679       61.81187
H          6.02512       79.76702       57.49341
H          3.77018       81.20693       58.72835
H          5.63893       78.91867       59.65624
H          4.11001       78.64816       58.76614
H          4.30958       79.99546       61.55323
H          3.98930       78.25735       61.23446
H          1.95952       78.78439       59.93609
H          2.16726       80.54919       60.26902
H          1.97205       80.11081       62.72468
H          1.83664       78.33901       62.41073
H         -0.06239       80.42173       61.43113
H         -0.17065       78.73711       61.15598
H         -0.30357       79.35164       62.73432
N          5.12368       82.73255       60.36786
C          5.94665       83.61052       61.21056
C          5.42134       83.62326       62.63115
O          4.22264       83.44297       62.79833
C          5.93100       85.06753       60.68308
C          6.05602       85.10025       59.19466
O          5.14674       85.57232       58.52849
O          7.03131       84.41669       58.57785
H          4.13190       82.97689       60.22274
H          6.99104       83.24657       61.18798
H          6.73781       85.65829       61.16601
H          4.95619       85.54667       60.93536
N          6.17861       83.93854       63.71947
C          7.61398       84.17840       63.76772
C          8.23578       83.37223       64.88980
O          7.57700       82.51160       65.45680
H          5.67949       84.03703       64.61466
H          7.75119       85.24734       64.03415
H          8.14522       83.99812       62.81448
N          9.49587       83.65911       65.31911
C         10.05127       83.10565       66.55304
C          9.22440       83.61405       67.73170
O          9.09099       84.82127       67.88293
C         11.52898       83.53361       66.70460
C         12.17772       82.97170       67.94511
O         11.73425       83.32283       69.16793
O         13.13053       82.21487       67.84895
H         10.04576       84.35552       64.79174
H         10.03480       81.99328       66.50380
H         11.61183       84.64157       66.72913
H         12.08624       83.16665       65.81382
N          8.65560       82.74728       68.61802
C          7.87587       83.18491       69.77165
C          6.49731       83.72453       69.42745
O          5.78456       84.10314       70.34827
H          8.82751       81.73691       68.50798
H          8.45863       83.93848       70.34510
H          7.70858       82.31071       70.43658
N          6.03193       83.75873       68.14850
C          4.69747       84.19315       67.75626
C          4.81776       85.43529       66.88113
O          5.93233       85.90175       66.65583
C          3.98090       83.00641       67.04721
C          3.89002       81.78299       67.96632
O          2.67753       83.36264       66.66989
H          6.64110       83.44037       67.39101
H          4.09456       84.48074       68.64654
H          4.57516       82.72790       66.14682
H          2.43888       82.81151       65.87900
H          4.89963       81.42964       68.26218
H          3.30956       82.03183       68.88058
H          3.37846       80.95264       67.43508
N          3.71918       86.05769       66.37498
C          3.79547       87.31455       65.64307
C          4.14068       88.38685       66.66215
O          5.16878       89.03304       66.54100
C          2.46008       87.60807       64.89052
C          2.15428       86.45366       63.89132
C          2.54651       88.95941       64.15249
C          0.79584       86.57312       63.19890
H          2.78557       85.66958       66.57029
H          4.59035       87.24401       64.86347
H          1.63161       87.66368       65.63050
H          2.13554       85.48424       64.43073
H          2.95478       86.39305       63.12140
H          3.35333       88.93495       63.38837
H          1.58885       89.20947       63.65451
H          2.75542       89.78526       64.86352
H         -0.01730       86.60836       63.95483
H          0.74182       87.47072       62.55219
H          0.63643       85.68399       62.55224
N          3.32186       88.56095       67.73992
C          3.60139       89.45257       68.85658
C          2.48551       90.46795       68.97494
O          1.32355       90.08901       68.94964
C          3.70890       88.63348       70.16340
C          4.84943       87.61110       70.09089
O          3.94878       89.51053       71.23511
H          2.46758       87.98789       67.80364
H          4.56901       89.98430       68.72064
H          2.74532       88.09423       70.32534
H          3.68709       89.03206       72.06479
H          4.90891       87.04211       71.04247
H          4.67371       86.88767       69.27114
H          5.82054       88.12278       69.91938
N          2.78257       91.78244       69.17703
C          1.76762       92.81744       69.31429
C          2.15394       94.00811       68.45519
O          1.39555       94.34951       67.55692
C          1.55531       93.15663       70.80818
C          0.42733       94.16967       71.01354
O          2.73305       93.64383       71.39920
H          3.77083       92.04678       69.29886
H          0.78574       92.43372       68.95361
H          1.22687       92.21600       71.31666
H          3.08150       92.93452       72.00056
H         -0.51917       93.78610       70.57517
H          0.26708       94.33600       72.09975
H          0.67612       95.14022       70.53809
N          3.33390       94.66900       68.65337
C          3.78329       95.77314       67.81605
C          5.07683       95.42312       67.10657
O          5.69175       94.40266       67.39022
C          4.01931       97.04346       68.66639
C          2.72627       97.62050       69.25693
C          2.95274       98.98072       69.94426
C          3.78840       98.89541       71.23190
N          3.96986      100.22438       71.81843
H          3.96406       94.36350       69.40984
H          3.03454       95.99512       67.02435
H          4.45588       97.83462       68.02010
H          4.75401       96.81491       69.46850
H          2.25732       96.90344       69.96257
H          2.02261       97.79547       68.41418
H          1.95956       99.40406       70.20739
H          3.44001       99.67585       69.22474
H          4.78913       98.46159       71.02447
H          3.26432       98.23903       71.96158
H          3.04262      100.66547       72.01759
H          4.50183      100.13681       72.71430
H          4.51352      100.83223       71.16285
N          5.54818       96.27751       66.15834
C          6.83014       96.14010       65.48651
C          6.96742       94.80899       64.74683
O          7.94124       94.12103       65.01755
C          7.07456       97.37528       64.58769
C          8.50889       97.45999       64.05539
C          8.70273       98.73459       63.28281
O          9.59027       99.65375       63.70919
O          8.05204       98.94836       62.27211
H          4.97037       97.10212       65.92933
H          7.61864       96.18030       66.27283
H          6.90626       98.28315       65.21032
H          6.35466       97.41398       63.74972
H          8.73755       96.59286       63.40101
H          9.21256       97.45306       64.91669
N          6.07401       94.32586       63.83243
C          4.82943       94.96128       63.45698
H          4.17098       95.07588       64.34154
H          5.00541       95.93628       62.97158
H          4.29376       94.31976       62.72456
H          6.27682       93.41160       63.39736
Ca         6.05583       83.41236       56.84522
O          8.73011       81.74640       57.10197
H          9.22517       82.47388       56.64827
H          8.39091       82.16135       57.93329
O          8.36802       84.90289       54.79315
H          9.11186       84.24997       54.76884
H          8.76567       85.71660       55.19318

Ca 1.0



