%chk=apoCaM-CA-Ng.loop4.water4.frame140.chk
%nprocshared=20
%mem=10GB
%nosave
#b3lyp/svp scf=(tight,noincore,xqc) Test 
#IOP(5/87=12) Density=Current Pop=(MK,readradii) iop(6/33=2) iop(6/42=6)

apoCaM-CA-Ng.loop4.water4.frame140 

   -3  1 
C         37.45187       36.86604        8.61106
C         37.06934       35.71923        9.49343
O         36.69714       34.68604        8.95878
H         38.28093       36.54228        7.94437
H         36.58415       37.16527        7.98843
H         37.79729       37.73701        9.20402
N         37.18918       35.80732       10.85341
C         36.95905       34.69061       11.76469
C         37.86844       33.54008       11.37539
O         37.39999       32.48134       10.99745
C         35.45070       34.39607       11.99710
C         34.58557       34.16258       10.79543
O         34.74980       33.18448       10.09273
O         33.58001       35.01618       10.51895
H         37.54701       36.68339       11.26194
H         37.30256       34.98670       12.78174
H         35.03329       35.28615       12.51673
H         35.34622       33.53286       12.69120
N         39.21936       33.75556       11.43633
C         40.31969       32.84196       11.12043
C         40.45230       31.71982       12.14770
O         41.46105       31.70307       12.84090
C         40.32426       32.36066        9.64310
C         41.62854       31.59088        9.27638
C         40.12882       33.54242        8.67640
C         42.92617       32.41630        9.34348
H         39.51597       34.69791       11.73611
H         41.23580       33.46057       11.23553
H         39.47103       31.66617        9.49658
H         41.53368       31.21432        8.23534
H         41.73867       30.70861        9.94162
H         40.16032       33.19180        7.62799
H         39.14533       34.01530        8.83711
H         40.90523       34.32209        8.81672
H         43.12926       32.79261       10.36525
H         43.78613       31.77829        9.05331
H         42.89741       33.27288        8.63854
N         39.48886       30.77274       12.34312
C         39.58933       29.77143       13.39568
C         40.65976       28.73170       13.07319
O         41.57793       28.61626       13.87271
C         38.21174       29.15863       13.74847
C         37.25762       30.21284       14.24869
O         37.57053       30.95389       15.32882
O         36.18841       30.39199       13.68975
H         38.63760       30.78061       11.77717
H         39.89501       30.28754       14.33581
H         38.34712       28.41417       14.56224
H         37.73909       28.65036       12.89393
N         40.67166       27.93475       11.96025
C         39.66993       27.96335       10.90088
C         39.92009       26.94071        9.80289
O         40.92688       26.24845        9.85625
H         41.46043       27.27502       11.88334
H         39.65474       28.97449       10.44877
H         38.70801       27.70966       11.33962
N         39.07699       26.75568        8.73930
C         37.81659       27.42923        8.44504
C         38.06435       28.92288        8.31941
O         37.51595       29.68698        9.10046
C         36.72075       26.98011        9.44652
C         35.32391       27.20482        8.93853
O         34.96410       26.69183        7.89024
O         34.43497       27.89391        9.67412
H         39.36124       26.06029        8.04440
H         37.46325       27.05082        7.46117
H         36.83151       27.45435       10.43693
H         36.81259       25.88010        9.57706
N         38.95462       29.42809        7.40993
C         39.58787       28.65850        6.34533
C         41.01420       28.28675        6.65877
O         41.50817       28.59640        7.73363
H         39.18697       30.43039        7.45321
H         39.53580       29.24868        5.40502
H         39.05005       27.71430        6.14713
N         41.73447       27.58490        5.73663
C         43.10274       27.13496        5.96528
C         44.10775       28.12049        5.39101
O         45.28856       27.95951        5.67371
C         43.35514       25.75360        5.31386
C         42.56223       24.55463        5.86364
C         41.06637       24.64365        5.71943
N         40.47859       24.86441        4.52055
O         40.37050       24.47761        6.70547
H         41.30578       27.40430        4.81622
H         43.29696       27.07623        7.06007
H         44.42757       25.49404        5.45558
H         43.17958       25.83828        4.21935
H         42.82571       24.39744        6.93309
H         42.89218       23.65711        5.29799
H         41.04051       24.99521        3.66832
H         39.45106       24.91686        4.44811
N         43.73314       29.15702        4.58449
C         44.66827       30.15359        4.07504
C         44.77738       30.14852        2.55320
O         45.55114       30.95161        2.05364
C         44.28553       31.56904        4.59695
C         44.40998       31.64052        6.12443
C         42.87611       32.00961        4.16093
H         42.74339       29.25913        4.32251
H         45.69918       29.94287        4.43953
H         45.01513       32.29867        4.18031
H         43.70114       30.94105        6.61590
H         45.44426       31.38054        6.43706
H         44.19667       32.67252        6.47508
H         42.68568       33.05125        4.49437
H         42.78051       31.97883        3.05540
H         42.09029       31.36623        4.60838
N         44.08621       29.27702        1.75069
C         44.25137       29.26944        0.29254
C         42.94907       29.51800       -0.47029
O         43.02823       29.67152       -1.68373
C         44.85340       27.91881       -0.15239
C         46.14873       27.59456        0.55460
N         47.23406       28.39326        0.42852
O         46.21826       26.58894        1.24593
H         43.47056       28.57044        2.17495
H         44.94863       30.07719       -0.01497
H         45.04284       27.93041       -1.24809
H         44.11634       27.11196        0.05998
H         47.20276       29.24214       -0.15349
H         48.11294       28.15899        0.91447
N         41.72217       29.51175        0.12924
C         40.46498       29.59606       -0.61672
C         39.40336       30.37294        0.14117
O         39.24841       30.11910        1.32658
C         39.88652       28.17692       -0.79918
C         40.65254       27.31629       -1.76651
C         40.73852       27.68694       -3.12004
C         41.23592       26.11221       -1.34487
C         41.39244       26.86239       -4.03755
C         41.89057       25.28833       -2.26515
C         41.96622       25.65916       -3.61634
O         42.57744       24.86530       -4.51794
H         41.66035       29.28903        1.13308
H         40.60526       30.04582       -1.62422
H         38.86205       28.24611       -1.21969
H         39.80607       27.68822        0.19793
H         40.28233       28.60471       -3.47041
H         41.17321       25.80435       -0.30863
H         41.44089       27.15398       -5.07935
H         42.32832       24.35748       -1.92883
H         42.96942       24.01549       -4.27210
N         38.49499       31.14262       -0.54493
C         37.23074       31.67218       -0.01006
C         37.34372       32.90765        0.87288
O         36.59018       33.84276        0.63342
C         36.37530       30.58159        0.68464
C         35.91858       29.49687       -0.30215
C         35.14757       28.41613        0.39998
O         34.02507       28.71482        1.08174
O         35.53264       27.25865        0.35048
H         38.62514       31.23205       -1.56499
H         36.61641       32.00973       -0.87754
H         35.45927       31.05239        1.10523
H         36.91750       30.12896        1.53757
H         36.79294       29.04713       -0.81030
H         35.26730       29.95776       -1.07659
N         38.17686       32.97598        1.94546
C         38.12504       34.05440        2.93077
C         38.42106       35.44417        2.37122
O         38.26287       36.39621        3.12419
C         39.10442       33.77263        4.09742
C         38.92604       32.42102        4.81870
C         37.59938       32.27664        5.50160
O         37.55442       32.18974        6.84215
O         36.56857       32.19207        4.85401
H         38.82060       32.20433        2.11031
H         37.08873       34.08624        3.33114
H         39.01066       34.57893        4.85869
H         40.14040       33.80165        3.69426
H         39.72479       32.35508        5.58311
H         39.07702       31.55607        4.14321
N         38.84592       35.65731        1.09149
C         39.10474       36.98016        0.55483
H         40.16224       37.04382        0.22581
H         38.44246       37.15926       -0.31796
H         38.92212       37.78737        1.29585
H         39.00394       34.86474        0.45552
Ca        35.62575       31.77763        7.90930
O         32.44546       31.22911        8.60020
H         32.57679       31.61089        9.50383
H         31.56815       31.58347        8.30949
O         33.61684       33.45404        6.45666
H         34.50687       33.40808        6.02605
H         33.19428       32.58474        6.24186
O         35.25351       29.26076        6.49626
H         34.47336       29.35699        7.09910
H         34.98925       29.74033        5.67240
O         34.68951       30.46924       10.95585
H         35.62745       30.58292       11.24399
H         34.76111       30.32362        9.98068

Ca 1.0



