%chk=apoCaM-CA-Ng.loop3.water4.frame196.chk
%nprocshared=20
%mem=10GB
%nosave
#b3lyp/svp scf=(tight,noincore,xqc) Test 
#IOP(5/87=12) Density=Current Pop=(MK,readradii) iop(6/33=2) iop(6/42=6)

apoCaM-CA-Ng.loop3.water4.frame196 

   0  1 
C        -18.21050       28.93827       21.95963
C        -19.63212       29.35504       22.19348
O        -19.88908       30.10647       23.11915
H        -17.53467       29.39457       22.71391
H        -18.13076       27.83264       22.03331
H        -17.88862       29.25897       20.94694
N        -20.61491       28.88522       21.37704
C        -22.04071       29.18124       21.50921
C        -22.60183       28.64935       22.82431
O        -23.43424       29.30142       23.44130
C        -22.33910       30.69062       21.31807
C        -21.85998       31.26104       20.00862
O        -22.06760       32.56548       19.74797
O        -21.29004       30.56854       19.17997
H        -20.33957       28.25407       20.60787
H        -22.56351       28.62155       20.70139
H        -21.86867       31.27068       22.13945
H        -23.43697       30.85312       21.37243
N        -22.17594       27.45019       23.31531
C        -22.68308       26.84532       24.55224
C        -22.39524       27.68852       25.80721
O        -22.84569       27.30991       26.87949
C        -22.07467       25.42814       24.73117
C        -22.43815       24.48310       23.56614
C        -21.79705       23.09864       23.72211
C        -22.16342       22.20317       22.52727
N        -21.55528       20.87921       22.64826
H        -21.45950       26.94732       22.77272
H        -23.78643       26.73921       24.45820
H        -22.45488       24.97523       25.67317
H        -20.96765       25.51683       24.80948
H        -22.08770       24.89971       22.60060
H        -23.54343       24.37690       23.51754
H        -22.14954       22.62727       24.66494
H        -20.69059       23.20748       23.76727
H        -21.81068       22.67895       21.58427
H        -23.26931       22.09443       22.47045
H        -21.82932       20.30218       21.82004
H        -20.51295       20.96227       22.67115
H        -21.89353       20.40605       23.51718
N        -21.64115       28.82372       25.75585
C        -21.28256       29.64685       26.90696
C        -22.51079       30.28879       27.55164
O        -23.29580       30.91851       26.85616
C        -20.28082       30.72852       26.44573
C        -19.58545       31.39464       27.59466
O        -18.37005       31.33066       27.69206
O        -20.28422       32.07252       28.51697
H        -21.24273       29.09919       24.85583
H        -20.74833       28.99951       27.63622
H        -20.79434       31.48035       25.80679
H        -19.48918       30.24274       25.83307
N        -22.71077       30.18850       28.89682
C        -23.85788       30.73643       29.61016
C        -24.01408       32.23998       29.48170
O        -25.08750       32.68213       29.09727
H        -22.01147       29.68069       29.45960
H        -23.73951       30.50430       30.69091
H        -24.78577       30.23357       29.25957
N        -22.99367       33.08832       29.79680
C        -23.11639       34.54780       29.75951
C        -22.49169       35.16107       28.51297
O        -22.46777       36.38096       28.41098
C        -22.55106       35.17446       31.05786
C        -21.05378       35.05831       31.24965
N        -20.47510       35.63115       32.32975
O        -20.35649       34.47350       30.43460
H        -22.08883       32.67784       30.05777
H        -24.19019       34.83530       29.72237
H        -23.06410       34.72024       31.93290
H        -22.79333       36.25984       31.05072
H        -21.04282       36.13585       33.02577
H        -19.45592       35.58528       32.46547
N        -22.03362       34.38889       27.48948
C        -21.51215       34.93885       26.25538
C        -20.19155       35.64187       26.44303
O        -20.08686       36.80923       26.09805
H        -22.12010       33.36620       27.54094
H        -22.26709       35.61957       25.80335
H        -21.33976       34.10831       25.53701
N        -19.11389       34.95113       26.91280
C        -17.75772       35.48433       26.92703
C        -17.15509       35.42679       28.32263
O        -17.76829       34.89146       29.23390
C        -16.85388       34.62657       25.99345
C        -17.37087       34.42745       24.58604
C        -16.73105       35.04534       23.49870
C        -18.46405       33.57712       24.33725
C        -17.18560       34.82824       22.19366
C        -18.91395       33.35949       23.03464
C        -18.27549       33.98407       21.95685
O        -18.69408       33.77340       20.69311
H        -19.24486       33.97549       27.20061
H        -17.74981       36.53598       26.56878
H        -16.69423       33.61439       26.42908
H        -15.85583       35.10954       25.94112
H        -15.88009       35.69532       23.65886
H        -18.96041       33.06061       25.14357
H        -16.68495       35.31162       21.36483
H        -19.75347       32.69910       22.86442
H        -19.43323       33.18267       20.49009
N        -15.88038       35.87454       28.51749
C        -15.12034       35.55917       29.71964
C        -15.61184       36.35814       30.90803
O        -16.00069       35.75030       31.89303
C        -13.57982       35.74772       29.52110
C        -13.02572       35.12736       28.20330
C        -12.81287       35.15000       30.72372
C        -13.32761       33.63883       28.00577
H        -15.40510       36.32943       27.73005
H        -15.25855       34.47323       29.92191
H        -13.35495       36.83596       29.47022
H        -11.92482       35.27833       28.17069
H        -13.42678       35.66825       27.32379
H        -12.98271       34.05767       30.80851
H        -11.72313       35.33476       30.61667
H        -13.13792       35.58539       31.68422
H        -12.89415       33.30592       27.03947
H        -12.88105       33.02255       28.81055
H        -14.42202       33.46047       27.96519
N        -15.60455       37.72421       30.90718
C        -15.96451       38.48885       32.09930
C        -14.91619       38.33019       33.19452
O        -15.23315       38.60163       34.34336
C        -16.14206       39.98053       31.78714
O        -17.15561       40.14497       30.83421
H        -15.33198       38.22309       30.04585
H        -16.94267       38.10514       32.46978
H        -15.18741       40.40009       31.39822
H        -16.42748       40.51092       32.72547
H        -17.32233       41.12153       30.77451
N        -13.64268       37.91338       32.90729
C        -12.58377       37.71358       33.89412
C        -12.88602       36.59430       34.88672
O        -12.10250       36.42331       35.81143
C        -12.24842       39.03361       34.60411
H        -13.38411       37.75232       31.92552
H        -11.65594       37.41305       33.35655
H        -13.09058       39.40499       35.21980
H        -11.36982       38.89433       35.27041
H        -11.98204       39.80491       33.85006
N        -13.95837       35.75846       34.74183
C        -14.27887       34.69039       35.68106
C        -14.12410       33.32774       35.03148
O        -13.83993       33.25052       33.84337
C        -15.71045       34.89333       36.18866
H        -14.57380       35.85545       33.92566
H        -13.58758       34.71572       36.55079
H        -15.79989       35.88708       36.67620
H        -16.42912       34.85313       35.34189
H        -15.99072       34.11487       36.92761
N        -14.25876       32.19654       35.78951
C        -14.12062       30.82484       35.29698
C        -12.71852       30.48912       34.79051
O        -12.53146       29.36096       34.35427
C        -15.16381       30.51648       34.20253
C        -16.60381       30.74884       34.67342
C        -17.54696       30.48450       33.54045
O        -17.41416       31.19234       32.40462
O        -18.42516       29.64290       33.63887
H        -14.48308       32.30605       36.79028
H        -14.32134       30.13293       36.14604
H        -15.07034       29.45132       33.89336
H        -14.95963       31.14232       33.30986
H        -16.73512       31.80488       34.99064
H        -16.83680       30.08822       35.53719
N        -11.68421       31.38110       34.82072
C        -10.36262       31.08180       34.30589
H         -9.61790       31.17697       35.12260
H        -10.29009       30.05903       33.88001
H        -10.11285       31.80725       33.50318
H        -11.80939       32.31849       35.22181
Ca       -18.80827       30.99980       30.66357
O        -18.83032       28.19922       29.76063
H        -18.64592       28.75393       28.96146
H        -18.05368       28.35755       30.35457
O        -17.70255       33.84826       32.92185
H        -18.27500       33.55648       33.67449
H        -16.78122       33.61661       33.20069
O        -21.36516       31.42481       32.27775
H        -21.60951       32.35106       32.52659
H        -20.51035       31.26297       32.74861
O        -15.27279       31.71534       30.20451
H        -15.39270       30.74536       30.36265
H        -14.72834       32.02722       30.97050

Ca 1.0



