%chk=apoCaM-CA-Ng.loop4.water6.frame11.chk
%nprocshared=20
%mem=10GB
%nosave
#b3lyp/svp scf=(tight,noincore,xqc) Test 
#IOP(5/87=12) Density=Current Pop=(MK,readradii) iop(6/33=2) iop(6/42=6)

apoCaM-CA-Ng.loop4.water6.frame11 

   -3  1 
C         80.62052       33.56876       67.05382
C         82.07076       33.27496       66.82380
O         82.86446       34.20162       66.78995
H         80.01738       33.18552       66.20601
H         80.29490       33.07077       67.99232
H         80.45196       34.66203       67.15888
N         82.48903       31.98309       66.70376
C         83.88166       31.56367       66.59028
C         84.66578       32.04382       67.79721
O         85.65161       32.73624       67.63807
C         84.50007       31.86674       65.19407
C         84.59981       33.30689       64.76252
O         85.38724       34.17613       65.42189
O         84.00815       33.68099       63.76303
H         81.77934       31.23709       66.77007
H         83.89992       30.45185       66.65069
H         83.88289       31.32500       64.44320
H         85.52206       31.43052       65.15421
N         84.23723       31.68774       69.04719
C         84.84992       32.00314       70.34312
C         86.17520       31.26498       70.51862
O         86.21715       30.34308       71.32227
C         84.93262       33.52751       70.63896
C         85.41837       33.82460       72.08424
C         83.58711       34.22982       70.38120
C         84.50815       33.33079       73.21517
H         83.37434       31.12321       69.09390
H         84.15377       31.57355       71.09646
H         85.67352       33.98027       69.94784
H         85.49565       34.92361       72.19693
H         86.43020       33.38854       72.23142
H         83.67423       35.31712       70.59356
H         83.29072       34.12232       69.32171
H         82.77642       33.80421       71.00602
H         84.40424       32.22800       73.20628
H         84.95380       33.61955       74.19037
H         83.50514       33.80057       73.15602
N         87.27953       31.56451       69.77531
C         88.47365       30.73366       69.77797
C         89.28709       30.89314       71.05361
O         89.42849       29.89717       71.74876
C         89.32865       30.95665       68.50681
C         88.52618       30.69281       67.25879
O         88.37143       31.57520       66.42934
O         87.97237       29.48247       67.05135
H         87.25047       32.34328       69.11556
H         88.14160       29.67107       69.70542
H         90.19211       30.25746       68.51891
H         89.73056       31.98481       68.45565
N         89.90832       32.04711       71.44840
C         89.86086       33.34251       70.78436
C         91.20848       33.67598       70.17070
O         92.09461       32.83325       70.21072
H         90.49529       31.99985       72.29662
H         89.59467       34.10193       71.54704
H         89.08728       33.38066       70.00310
N         91.48257       34.87501       69.57625
C         90.55840       36.00583       69.48882
C         89.36443       35.70014       68.59606
O         89.46015       34.80352       67.76962
C         91.29406       37.22522       68.87216
C         92.42770       37.69937       69.73236
O         92.18048       38.17940       70.96403
O         93.57224       37.68146       69.30904
H         92.43658       34.99655       69.19978
H         90.21968       36.25101       70.51492
H         90.61979       38.08852       68.72456
H         91.67603       36.94162       67.86562
N         88.21856       36.44515       68.62631
C         87.91387       37.46683       69.62014
C         87.64712       36.85842       70.97727
O         87.61221       35.64497       71.10028
H         87.50737       36.25797       67.90865
H         86.99031       38.01113       69.32616
H         88.72280       38.21505       69.67982
N         87.46080       37.66645       72.05524
C         87.16543       37.18043       73.40179
C         85.89765       37.82576       73.96311
O         85.59828       37.60289       75.12853
C         88.38347       37.45554       74.30996
C         89.59046       36.60796       73.86331
C         90.76907       36.75701       74.78957
N         91.97435       37.15288       74.31927
O         90.64274       36.48876       75.97499
H         87.56853       38.68491       71.92319
H         87.00211       36.08344       73.42027
H         88.12907       37.15713       75.35077
H         88.63779       38.53898       74.30707
H         89.88169       36.88466       72.82844
H         89.29721       35.53555       73.86539
H         92.10958       37.36105       73.32170
H         92.78339       37.23476       74.95220
N         85.10827       38.63933       73.20246
C         83.97237       39.39765       73.71409
C         84.34143       40.85244       73.54779
O         84.69873       41.23268       72.44615
C         82.67055       39.05168       72.94636
C         81.48878       39.89848       73.45896
C         82.32447       37.56335       73.09703
H         85.33826       38.78574       72.20922
H         83.79401       39.18314       74.79186
H         82.81671       39.26787       71.86688
H         81.68096       40.98206       73.30809
H         80.55863       39.64435       72.90867
H         81.31440       39.71712       74.54139
H         83.13624       36.92899       72.68413
H         82.17035       37.30300       74.16603
H         81.39123       37.32798       72.54285
N         84.30896       41.70392       74.60951
C         84.81344       43.07321       74.62437
C         84.20195       43.98827       73.56560
O         83.38096       44.81839       73.93110
C         86.35938       43.07136       74.58820
C         86.95094       44.45680       74.68865
N         86.73059       45.23230       75.77589
O         87.64677       44.87911       73.77733
H         83.93828       41.34489       75.50334
H         84.52543       43.49031       75.61655
H         86.71422       42.58686       73.65407
H         86.74157       42.46303       75.43645
H         86.15714       44.89390       76.56158
H         87.14127       46.17593       75.83524
N         84.65720       43.99606       72.27408
C         84.27754       45.00161       71.29645
C         83.75411       44.37340       70.00967
O         84.45925       43.58382       69.39633
C         85.53759       45.82908       70.97018
C         85.21781       47.05335       70.15574
C         85.59869       47.14196       68.80843
C         84.54514       48.13048       70.75569
C         85.30248       48.29127       68.06957
C         84.26382       49.28366       70.02063
C         84.63791       49.36847       68.67591
O         84.35635       50.48748       67.97939
H         85.40471       43.35202       71.98829
H         83.51469       45.68758       71.72436
H         86.26544       45.17382       70.44088
H         86.03536       46.17093       71.90395
H         86.11312       46.31921       68.32769
H         84.25507       48.08279       71.79860
H         85.59268       48.34433       67.02823
H         83.75716       50.11252       70.49898
H         84.59907       50.58787       67.04815
N         82.55229       44.76492       69.50044
C         82.05116       44.42312       68.17114
C         81.77676       42.93479       67.99664
O         82.28225       42.33619       67.05685
C         82.99840       45.01091       67.08566
C         82.40988       44.98319       65.66143
C         83.38735       45.55504       64.67492
O         83.09686       46.54478       64.02275
O         84.58476       44.96491       64.49169
H         81.98304       45.42694       70.04952
H         81.07197       44.93948       68.05613
H         83.96962       44.47078       67.10089
H         83.19405       46.07682       67.33584
H         81.46771       45.57324       65.64682
H         82.17441       43.95405       65.32904
N         80.94374       42.27410       68.85176
C         80.49270       40.90400       68.59761
C         78.96572       40.78808       68.60691
O         78.46317       39.77620       68.13719
C         81.14042       39.94793       69.61716
C         80.88278       38.44174       69.39506
C         81.48809       37.90129       68.12782
O         81.10882       38.28177       67.03232
O         82.43293       36.94869       68.20341
H         80.62721       42.76770       69.69803
H         80.82609       40.60857       67.58409
H         80.76364       40.22505       70.62296
H         82.24110       40.10825       69.60659
H         79.80057       38.20757       69.42056
H         81.34831       37.89816       70.24166
N         78.15295       41.75079       69.13463
C         76.71364       41.60367       69.16509
H         76.43675       40.68358       69.72389
H         76.25454       42.47575       69.67847
H         76.31574       41.54635       68.13069
H         78.53701       42.60328       69.55873
Ca        83.74384       36.97015       65.47167
O         85.00857       36.06230       67.93873
H         85.13227       36.36951       68.87058
H         85.47644       35.19392       67.90018
O         84.39692       39.82057       66.56614
H         84.64840       40.32267       65.75046
H         85.11567       40.02501       67.21572
O         86.84875       37.52112       65.59417
H         87.74443       37.11242       65.48898
H         87.02404       38.49330       65.65807
O         81.48843       35.78490       63.82211
H         81.68696       34.84921       64.07498
H         80.75016       36.05036       64.42560
O         82.70319       38.73668       63.30407
H         82.64404       38.19983       62.47411
H         82.27553       39.59955       63.07588
O         85.39299       36.85805       62.99054
H         85.21091       35.98523       62.56073
H         85.66766       37.45156       62.24764

Ca 1.0



