%chk=apoCaM-CA-Ng.loop3.water5.frame486.chk
%nprocshared=20
%mem=10GB
%nosave
#b3lyp/svp scf=(tight,noincore,xqc) Test 
#IOP(5/87=12) Density=Current Pop=(MK,readradii) iop(6/33=2) iop(6/42=6)

apoCaM-CA-Ng.loop3.water5.frame486 

   0  1 
C         45.50071       42.67949      100.67317
C         44.48205       41.72680      101.22907
O         44.40764       41.55964      102.43773
H         46.20088       42.12361      100.01292
H         44.99472       43.46822      100.07807
H         46.08511       43.15993      101.48611
N         43.66611       41.04674      100.37933
C         42.68737       40.05787      100.81713
C         41.62122       40.67456      101.71323
O         40.90407       41.56279      101.27247
C         42.03309       39.40520       99.58094
C         41.02857       38.35252       99.95045
O         41.40290       37.27964      100.67255
O         39.86922       38.46328       99.58716
H         43.77943       41.21892       99.36735
H         43.22748       39.25814      101.37167
H         42.82252       38.92791       98.96097
H         41.53822       40.18992       98.96566
N         41.44254       40.20398      102.98334
C         40.34092       40.61544      103.85385
C         40.68882       41.84924      104.68932
O         40.11217       42.02144      105.75548
C         39.94636       39.44423      104.79725
C         39.65582       38.09838      104.10333
C         38.57795       38.18306      103.01586
C         38.29227       36.79454      102.42675
N         37.32618       36.87710      101.33229
H         42.04605       39.42946      103.29748
H         39.43708       40.83967      103.24627
H         39.04116       39.74090      105.37228
H         40.76957       39.26665      105.52517
H         39.33281       37.38031      104.88935
H         40.58784       37.69881      103.65021
H         38.93558       38.84695      102.20122
H         37.64125       38.60343      103.44118
H         37.89234       36.12984      103.22457
H         39.23564       36.34737      102.04256
H         36.42782       37.29017      101.67135
H         37.71028       37.46479      100.55840
H         37.14486       35.91620      100.96249
N         41.61237       42.76008      104.26947
C         42.06598       43.88806      105.07787
C         40.90919       44.75162      105.56897
O         40.10401       45.20840      104.77002
C         43.09212       44.71890      104.27968
C         43.72867       45.77306      105.13550
O         43.05501       46.66578      105.61652
O         45.04557       45.72824      105.39953
H         42.04878       42.63320      103.34814
H         42.60194       43.47203      105.96077
H         42.61284       45.18496      103.39095
H         43.89718       44.03885      103.92420
N         40.80037       45.02175      106.90303
C         39.73230       45.79406      107.51349
C         39.62230       47.19699      106.96999
O         38.53951       47.55822      106.52972
H         41.51899       44.64876      107.54188
H         39.92476       45.86326      108.60641
H         38.76671       45.26058      107.37339
N         40.68938       48.05073      106.97227
C         40.58810       49.43337      106.50126
C         40.92504       49.57613      105.01899
O         41.65788       50.48533      104.65424
C         41.38078       50.39930      107.42578
C         42.88085       50.17744      107.47253
N         43.65045       50.95541      108.26773
O         43.40889       49.30288      106.80325
H         41.58492       47.70762      107.34597
H         39.52470       49.74977      106.57765
H         40.98795       50.29480      108.45995
H         41.19900       51.44596      107.09649
H         43.23367       51.70600      108.83669
H         44.66811       50.80385      108.31876
N         40.36427       48.74089      104.09232
C         40.47691       48.92204      102.65063
C         41.87992       48.89143      102.07190
O         42.00309       49.12236      100.87945
H         39.76251       47.97099      104.41071
H         40.02882       49.90650      102.39801
H         39.87800       48.13563      102.13999
N         42.98012       48.63324      102.83076
C         44.34254       48.73238      102.32221
C         45.24015       49.25497      103.42346
O         45.21889       48.72991      104.52379
C         44.82186       47.38710      101.75066
C         46.27248       47.44843      101.30937
C         46.71952       48.41493      100.38620
C         47.20082       46.54003      101.84312
C         48.07040       48.48193      100.02860
C         48.54838       46.60433      101.47815
C         48.98926       47.58087      100.57487
O         50.28970       47.66441      100.22867
H         42.85782       48.40046      103.82140
H         44.37381       49.46643      101.48850
H         44.18569       47.13014      100.87634
H         44.68968       46.59309      102.51461
H         46.03352       49.13201       99.95522
H         46.88430       45.78447      102.55103
H         48.40562       49.24225       99.33374
H         49.24950       45.89920      101.90572
H         50.95778       47.06477      100.59074
N         46.06666       50.30607      103.17952
C         46.84182       50.95727      104.22280
C         45.88601       51.80727      105.03113
O         45.83077       51.63375      106.23803
C         48.04965       51.72192      103.59804
C         49.02577       50.66206      103.00600
C         48.77739       52.58473      104.64762
C         50.20278       51.22752      102.21519
H         46.10979       50.69372      102.22530
H         47.29440       50.20262      104.90217
H         47.67844       52.39696      102.79514
H         48.47254       49.99570      102.31565
H         49.42815       50.03099      103.83041
H         48.09444       53.34110      105.07556
H         49.16916       51.95769      105.47559
H         49.61575       53.14726      104.18902
H         50.81760       50.38182      101.83664
H         49.83411       51.81206      101.34747
H         50.85843       51.85916      102.84626
N         45.05348       52.70364      104.43136
C         44.11818       53.53103      105.18843
C         44.87913       54.50608      106.06676
O         44.46584       54.74041      107.19321
C         43.16736       54.29643      104.25667
O         42.45555       53.40471      103.43899
H         45.07663       52.78767      103.40255
H         43.47331       52.87675      105.82006
H         43.73372       54.99606      103.60825
H         42.45287       54.90887      104.85615
H         41.72144       53.02963      103.99258
N         46.05052       55.05528      105.61928
C         46.92047       55.96018      106.36888
C         47.53804       55.35950      107.64153
O         48.31723       56.05399      108.28022
C         46.18096       57.27189      106.65695
H         46.35870       54.82280      104.66362
H         47.77663       56.21631      105.70500
H         45.32064       57.11533      107.33847
H         46.86961       58.01104      107.11715
H         45.80535       57.70100      105.70216
N         47.24929       54.10013      108.08208
C         47.77553       53.52727      109.31522
C         49.25130       53.19841      109.21099
O         49.64889       52.48274      108.30232
C         47.02334       52.23854      109.66480
H         46.59090       53.52406      107.55530
H         47.57759       54.22782      110.15731
H         45.94032       52.45306      109.78166
H         47.15524       51.47749      108.87254
H         47.39846       51.82436      110.62537
N         50.10286       53.62531      110.18310
C         51.51098       53.26019      110.29398
C         52.31429       53.78495      109.11408
O         53.07012       53.03303      108.51167
C         51.69778       51.72474      110.47449
C         50.78252       51.07529      111.52525
C         50.96557       51.64458      112.89959
O         50.02304       52.16300      113.47676
O         52.16095       51.56372      113.51319
H         49.72209       54.21521      110.93912
H         51.89937       53.76146      111.20910
H         52.76162       51.51837      110.72797
H         51.48079       51.21008      109.51385
H         51.00103       49.98590      111.56068
H         49.72423       51.18993      111.20790
N         52.18387       55.08160      108.71976
C         52.91873       55.65007      107.60660
H         53.64876       54.93614      107.16885
H         52.20690       55.95216      106.81038
H         53.47655       56.54399      107.95362
H         51.51475       55.69274      109.21133
Ca        45.85604       47.24162      106.85751
O         45.64745       48.38771      109.61701
H         45.76346       47.53674      110.10962
H         45.33318       49.03166      110.29975
O         48.43320       46.12683      107.91141
H         48.29283       46.66311      108.73194
H         48.04907       45.24036      108.12674
O         44.94326       45.12264      108.76910
H         45.42222       44.34285      108.39125
H         43.99705       44.98199      108.51414
O         48.04640       47.38632      104.79424
H         48.80202       47.83714      105.24577
H         47.79529       48.00637      104.06633
O         47.95216       49.10082      107.49501
H         48.69628       49.48620      108.01968
H         47.38584       49.87334      107.25362

Ca 1.0



