%chk=apoCaM-CA-Ng.loop4.water5.frame594.chk
%nprocshared=20
%mem=10GB
%nosave
#b3lyp/svp scf=(tight,noincore,xqc) Test 
#IOP(5/87=12) Density=Current Pop=(MK,readradii) iop(6/33=2) iop(6/42=6)

apoCaM-CA-Ng.loop4.water5.frame594 

   -3  1 
C         36.73260      128.57945       73.27419
C         37.34266      129.42485       72.19755
O         37.56409      128.90995       71.11640
H         35.75631      128.18496       72.92099
H         37.40635      127.72616       73.50072
H         36.56684      129.16109       74.20407
N         37.64609      130.73743       72.41904
C         38.25418      131.63244       71.43023
C         37.33165      131.97165       70.26812
O         37.76412      132.71280       69.39468
C         39.59334      131.07030       70.90719
C         40.48586      130.68587       72.04213
O         40.90974      131.61152       72.92371
O         40.80226      129.51771       72.18470
H         37.46663      131.12871       73.35604
H         38.47422      132.59659       71.94141
H         40.11239      131.82424       70.27648
H         39.41579      130.18068       70.26725
N         36.04922      131.50467       70.18717
C         35.16365      131.84527       69.07553
C         34.95290      133.35812       68.98915
O         35.12791      134.03122       69.99587
C         33.78966      131.10085       69.16381
C         33.02179      131.45276       70.47031
C         34.00081      129.58623       68.99010
C         31.63525      130.81742       70.56290
H         35.69602      130.88833       70.92490
H         35.70124      131.51450       68.16036
H         33.15655      131.42690       68.31141
H         32.87992      132.55329       70.51636
H         33.59112      131.14392       71.36994
H         33.03349      129.04788       68.94215
H         34.51397      129.39359       68.02478
H         34.60849      129.15837       69.81363
H         31.70284      129.71180       70.61270
H         31.13878      131.16201       71.49470
H         31.01281      131.11673       69.69412
N         34.65062      134.00225       67.82187
C         34.49461      133.34630       66.52665
C         35.73935      133.49368       65.67090
O         35.97903      132.61634       64.85571
C         33.19630      133.78023       65.81220
C         33.10892      135.23669       65.41890
O         34.11447      136.10062       65.65367
O         32.09946      135.64184       64.86575
H         34.59825      135.03135       67.85526
H         34.38211      132.25717       66.66509
H         32.34116      133.55218       66.48553
H         33.07765      133.17275       64.88851
N         36.61010      134.53138       65.83151
C         37.84385      134.66546       65.07896
C         37.59868      134.76163       63.59059
O         36.85435      135.62971       63.15726
H         36.41361      135.26331       66.52769
H         38.51216      133.80863       65.31508
H         38.36168      135.59306       65.40516
N         38.24611      133.91400       62.74244
C         38.12995      133.98125       61.28712
C         36.75903      133.58820       60.73740
O         36.57128      133.73198       59.53743
C         39.23416      133.12141       60.61350
C         39.25856      131.65616       60.99203
O         38.42550      131.14759       61.92168
O         40.07977      130.92079       60.46884
H         38.91474      133.24751       63.15649
H         38.31955      135.03434       60.98076
H         40.22555      133.54477       60.88299
H         39.12626      133.20244       59.50934
N         35.76261      133.06855       61.51242
C         34.48599      132.62433       60.96530
C         34.60495      131.39385       60.07532
O         33.59499      130.97772       59.52680
H         35.90154      132.97194       62.52082
H         34.02366      133.46233       60.39993
H         33.80225      132.35702       61.80047
N         35.79414      130.74417       59.90672
C         36.01257      129.56830       59.07783
C         35.19235      128.40487       59.60047
O         34.41452      127.80529       58.87184
C         35.81609      129.89328       57.58200
C         36.73646      131.05802       57.16015
C         36.60761      131.45335       55.71295
N         37.33659      132.49097       55.23982
O         35.84725      130.85641       54.96498
H         36.62004      131.08144       60.40052
H         37.08039      129.26726       59.19181
H         34.75849      130.16371       57.38290
H         36.07273      128.99267       56.98100
H         37.79662      130.78626       57.35992
H         36.48384      131.95267       57.76142
H         37.97708      133.00873       55.86062
H         37.25736      132.78388       54.25509
N         35.38424      128.01627       60.89136
C         34.71829      126.87455       61.51652
C         35.46318      126.39220       62.75996
O         35.47118      125.18834       62.98301
C         33.20407      127.13898       61.80062
C         32.50349      125.87944       62.34949
C         32.97884      128.30910       62.77201
H         36.09778      128.54076       61.41090
H         34.78414      126.02961       60.79472
H         32.70810      127.39586       60.83985
H         32.90968      125.59029       63.34284
H         31.41436      126.06180       62.47375
H         32.63203      125.02685       61.64966
H         33.41356      129.24425       62.36318
H         31.88927      128.47489       62.92316
H         33.43316      128.09996       63.76339
N         36.08265      127.24878       63.62635
C         36.70766      126.81677       64.86748
C         38.19763      127.15245       64.88344
O         38.68142      127.80034       63.96263
C         35.95151      127.54366       65.99614
C         36.32705      127.08160       67.36890
N         36.89439      127.93278       68.24915
O         36.11739      125.92233       67.69345
H         36.07492      128.26310       63.45175
H         36.60230      125.71613       64.99024
H         34.86032      127.36894       65.87752
H         36.13027      128.63782       65.88688
H         37.08517      128.91513       67.99897
H         37.14941      127.59323       69.18334
N         38.99425      126.72263       65.90642
C         40.40082      127.10162       66.04519
C         41.15778      126.08619       66.90916
O         40.55542      125.13530       67.39349
C         40.43447      128.55795       66.58622
C         41.78246      129.23754       66.64307
C         42.24171      129.79729       67.84762
C         42.57247      129.36487       65.48706
C         43.46669      130.47133       67.89432
C         43.80375      130.02679       65.54017
C         44.25386      130.58471       66.74083
O         45.43667      131.23204       66.77221
H         38.56997      126.12473       66.62854
H         40.87891      127.05138       65.04252
H         39.95082      128.57095       67.58889
H         39.81198      129.18795       65.91659
H         41.64299      129.72913       68.74631
H         42.23710      128.95296       64.54463
H         43.80180      130.91158       68.82484
H         44.40496      130.11420       64.64408
H         45.78003      131.63991       67.58030
N         42.50346      126.18590       67.09601
C         43.28715      125.16787       67.78492
C         44.52702      125.82089       68.37177
O         45.54220      125.87067       67.69283
C         43.55690      123.98838       66.80789
C         44.36367      122.80401       67.38112
C         45.83954      123.07478       67.46457
O         46.47948      123.00753       68.64683
O         46.47129      123.33325       66.45111
H         43.01370      126.96525       66.65890
H         42.69421      124.74023       68.61376
H         44.03669      124.34579       65.87056
H         42.55999      123.58296       66.52852
H         44.24913      121.93752       66.69411
H         43.95364      122.51098       68.37147
N         44.52405      126.45564       69.58342
C         43.37109      126.56540       70.48560
C         42.99396      125.22083       71.08842
O         43.71149      124.24609       70.90626
C         43.69572      127.57249       71.62175
C         43.82799      128.99833       71.06472
C         44.44682      129.97727       72.02935
O         43.94921      130.22240       73.25999
O         45.44475      130.58716       71.67921
H         45.40230      126.92383       69.85804
H         42.49758      126.94662       69.90950
H         44.64096      127.25246       72.11196
H         42.89587      127.58440       72.39151
H         42.82811      129.35340       70.75033
H         44.47025      128.98801       70.15981
N         41.83823      125.10378       71.80348
C         41.37389      123.85982       72.38480
H         40.38750      123.59654       71.94688
H         42.07229      123.01697       72.20014
H         41.25510      123.98668       73.48091
H         41.23739      125.93287       71.92637
Ca        42.29921      129.20908       74.42441
O         44.24778      127.50144       75.88567
H         43.34554      127.16643       76.11935
H         44.53015      128.02463       76.67738
O         44.51748      131.72463       75.81884
H         44.27718      132.54483       75.31868
H         45.27738      131.34043       75.31333
O         41.38567      132.70670       75.89277
H         41.54886      133.21412       76.72723
H         41.21373      133.40238       75.20939
O         41.69096      129.81194       77.72439
H         42.62416      129.85265       78.05306
H         41.26042      129.11834       78.28489
O         40.37742      126.92288       74.59003
H         40.77306      126.41859       75.34474
H         39.79753      127.60039       75.02069

Ca 1.0



