%chk=apoCaM-CA-Ng.loop2.water4.frame108.chk
%nprocshared=20
%mem=10GB
%nosave
#b3lyp/svp scf=(tight,noincore,xqc) Test 
#IOP(5/87=12) Density=Current Pop=(MK,readradii) iop(6/33=2) iop(6/42=6)

apoCaM-CA-Ng.loop2.water4.frame108 

   -2  1 
C         33.66862       37.65328       97.62846
C         34.84055       36.80369       97.23186
O         35.48985       37.10990       96.24616
H         32.74285       37.04121       97.62525
H         33.83180       38.06768       98.64493
H         33.53808       38.49930       96.91823
N         35.18957       35.71656       97.97242
C         36.34868       34.88563       97.64319
C         36.20227       34.10319       96.33126
O         37.18751       33.53240       95.89156
C         36.68286       33.93560       98.81483
C         35.61289       32.92262       99.14606
O         35.81252       32.07003      100.16820
O         34.56961       32.86298       98.51395
H         34.64490       35.51960       98.82632
H         37.21836       35.57273       97.53337
H         36.86215       34.55425       99.72158
H         37.62358       33.39146       98.58494
N         35.01041       34.01412       95.67106
C         34.77787       33.32726       94.39680
C         35.47246       34.03111       93.19725
O         35.53739       35.40539       93.46358
C         35.06175       31.82128       94.49524
H         34.18530       34.45609       96.09665
H         33.69158       33.43227       94.18585
H         34.46838       31.37824       95.32204
H         34.78094       31.31696       93.54665
H         36.13476       31.61967       94.69403
N         36.80003       33.49043       92.84816
C         37.56340       34.28680       91.85953
C         39.03705       34.17590       92.22145
O         39.86855       33.92902       91.35629
C         37.33530       33.85009       90.37459
C         35.95141       33.98346       89.79399
O         34.91704       34.44486       90.50970
O         35.76634       33.67047       88.62869
H         36.72797       32.49889       92.52279
H         37.32371       35.36606       91.95900
H         37.64436       32.78812       90.26217
H         37.99494       34.47281       89.72940
N         39.43676       34.35321       93.51439
C         40.83551       34.36082       93.90528
C         41.51181       35.66506       93.52268
O         42.72182       35.76216       93.66389
H         38.73056       34.50038       94.24658
H         41.34566       33.48461       93.44681
H         40.91921       34.25948       95.00824
N         40.78443       36.72401       93.06136
C         41.35338       37.99835       92.64294
C         42.06722       38.71078       93.78229
O         41.46318       38.97899       94.81136
C         40.23469       38.91281       92.11104
C         39.54836       38.31996       90.90341
N         38.22924       38.01568       90.93303
O         40.19349       38.11188       89.88691
H         39.76231       36.62756       92.98980
H         42.06753       37.81577       91.81024
H         40.65199       39.90273       91.82690
H         39.50460       39.05815       92.92954
H         37.66576       38.17861       91.77954
H         37.76843       37.60853       90.10574
N         43.36984       39.07344       93.63206
C         44.13943       39.81765       94.61426
C         43.68432       41.25553       94.75821
O         43.37328       41.88875       93.75876
H         43.85746       38.80912       92.76275
H         45.18256       39.87951       94.23709
H         44.17528       39.28370       95.58836
N         43.77056       41.87806       95.96889
C         43.52429       43.30869       96.15372
C         42.08447       43.68229       95.83487
O         41.88479       44.63745       95.10029
C         43.98357       43.82143       97.55048
C         43.25219       43.22523       98.76048
O         45.37539       43.65952       97.69316
H         44.09916       41.32112       96.77073
H         44.17631       43.86960       95.44416
H         43.79322       44.91778       97.57632
H         45.56586       42.69976       97.85673
H         43.39826       42.12856       98.82401
H         43.65201       43.68636       99.68971
H         42.17161       43.44410       98.71334
N         41.03839       42.94293       96.30203
C         39.63484       43.22762       95.98126
C         39.07959       42.14814       95.05783
O         39.81153       41.23694       94.70315
C         38.78958       43.41290       97.28056
C         38.83602       42.16188       98.19823
C         39.23275       44.69243       98.01229
C         37.86809       42.23631       99.38021
H         41.25289       42.10478       96.86103
H         39.54955       44.16771       95.39434
H         37.73345       43.57969       96.98334
H         39.86017       42.00623       98.59779
H         38.55179       41.26750       97.60310
H         40.27901       44.61566       98.36273
H         39.15562       45.56457       97.32799
H         38.57986       44.90857       98.88098
H         38.12295       43.07010      100.06444
H         36.82642       42.36040       99.01575
H         37.92844       41.29345       99.96394
N         37.79148       42.21541       94.59852
C         37.21840       41.24696       93.66063
C         36.73974       41.89388       92.35984
O         36.61171       41.18559       91.36869
C         36.10318       40.46333       94.37319
C         35.51547       39.37548       93.52177
O         35.74374       38.09297       93.83545
O         34.82686       39.64116       92.55077
H         37.18836       42.97210       94.94487
H         37.99571       40.52141       93.37170
H         35.29204       41.14067       94.71836
H         36.56079       39.99253       95.27187
N         36.46759       43.22143       92.27581
C         36.01795       43.90797       91.07040
C         34.67306       44.55986       91.35065
O         34.54545       45.16869       92.40255
C         37.11786       44.90593       90.63490
C         37.62840       45.80117       91.74772
C         36.85501       46.85462       92.26555
C         38.90524       45.56454       92.29148
C         37.33734       47.63404       93.32138
C         39.38419       46.35020       93.34122
C         38.59944       47.37932       93.86141
H         36.57958       43.80790       93.11234
H         35.89797       43.19904       90.22372
H         36.80015       45.50531       89.75541
H         37.96357       44.26761       90.29427
H         35.88078       47.07991       91.85702
H         39.52692       44.76108       91.91497
H         36.73150       48.43616       93.72152
H         40.36234       46.15748       93.75496
H         38.97194       47.98097       94.67993
N         33.60599       44.49837       90.49437
C         32.33654       45.15767       90.76832
C         31.58851       44.62268       91.98393
O         30.69726       45.31023       92.46044
C         31.52276       44.93640       89.48900
C         32.61616       44.90242       88.43791
C         33.66479       44.02892       89.12463
H         32.56797       46.23825       90.90921
H         31.07228       43.91669       89.50482
H         30.71479       45.68051       89.32188
H         32.30049       44.54484       87.43507
H         33.02477       45.93540       88.33696
H         33.36684       42.95781       89.09703
H         34.64731       44.18970       88.63215
N         31.85180       43.38664       92.50693
C         31.13996       42.85559       93.67280
C         31.59185       43.50655       94.97609
O         30.97854       43.23655       96.00050
C         31.34072       41.32822       93.78186
C         30.65958       40.58692       92.62135
C         30.90352       39.11173       92.71182
O         29.87322       38.26014       92.87668
O         32.03860       38.67591       92.61846
H         32.54343       42.78639       92.03376
H         30.04991       43.04510       93.54709
H         30.88260       40.95276       94.72461
H         32.43075       41.10343       93.81338
H         31.03881       40.94386       91.64127
H         29.56513       40.78112       92.66807
N         32.66297       44.34379       95.03552
C         33.11588       44.94541       96.26911
H         34.01727       45.56633       96.07478
H         32.31947       45.59413       96.68936
H         33.38441       44.15443       97.00107
H         33.19755       44.55208       94.19056
Ca        34.12193       36.51814       92.05606
O         31.79417       34.75713       91.78933
H         31.16393       35.06774       92.48666
H         32.32464       34.04724       92.23023
O         31.92512       36.97430       89.63894
H         31.42786       37.67492       90.13018
H         31.87925       37.25777       88.69165
O         32.75789       36.79678       94.68169
H         31.81334       37.08753       94.71451
H         32.73970       35.88226       95.05450
O         34.96374       38.35804       89.65488
H         34.40192       39.12905       89.38968
H         34.96599       37.76599       88.86121

Ca 1.0



