%chk=apoCaM-CA-Ng.loop2.water2.frame982.chk
%nprocshared=20
%mem=10GB
%nosave
#b3lyp/svp scf=(tight,noincore,xqc) Test 
#IOP(5/87=12) Density=Current Pop=(MK,readradii) iop(6/33=2) iop(6/42=6)

apoCaM-CA-Ng.loop2.water2.frame982 

   -2  1 
C         40.89224      110.05560       71.68443
C         39.74515      109.50291       72.47551
O         38.60748      109.62382       72.04380
H         41.59060      109.23322       71.42113
H         40.53283      110.53132       70.74701
H         41.43211      110.81384       72.28880
N         39.98329      108.86272       73.65341
C         38.93939      108.26678       74.47435
C         39.17245      106.76652       74.50620
O         39.40921      106.18986       75.55925
C         38.95037      108.93976       75.86337
C         37.83532      108.45134       76.74670
O         38.11531      107.87074       77.92892
O         36.67174      108.59488       76.40568
H         40.95972      108.77377       73.97690
H         37.93532      108.43959       74.02690
H         38.82283      110.03680       75.73256
H         39.93056      108.76435       76.35847
N         39.12417      106.07326       73.33412
C         39.36925      104.64032       73.22924
C         40.80977      104.32735       73.61673
O         41.69625      104.92253       73.01921
C         39.12484      104.18110       71.78432
H         38.89689      106.59847       72.47475
H         38.63502      104.11947       73.87247
H         39.80163      104.71303       71.08134
H         39.29893      103.09007       71.68179
H         38.07407      104.39609       71.49423
N         41.16911      103.44513       74.59925
C         40.24498      102.61293       75.37407
C         40.91651      101.98619       76.59829
O         42.12039      102.10544       76.77545
C         39.59629      101.51645       74.48482
C         40.60299      100.62192       73.81130
O         40.57763       99.29560       74.03146
O         41.41212      101.08387       73.02214
H         42.17885      103.37925       74.79928
H         39.45961      103.27476       75.79797
H         38.98092      101.96526       73.68709
H         38.90727      100.89829       75.09793
N         40.14598      101.36913       77.54014
C         40.65555      100.86429       78.80579
C         40.14772       99.46649       79.07873
O         39.32313       99.32495       79.97047
H         39.12472      101.33712       77.39859
H         40.24508      101.52809       79.59753
H         41.76047      100.91675       78.88582
N         40.54466       98.36561       78.38195
C         41.57463       98.35434       77.35192
C         42.92924       98.61586       78.00697
O         43.21975       97.96361       79.00163
C         41.60263       96.96511       76.67575
C         42.15921       96.99524       75.24761
N         42.56495       95.66379       74.80448
O         43.17766       97.92947       75.04431
H         40.08394       97.47180       78.62014
H         41.30741       99.10015       76.57410
H         40.56740       96.58530       76.53567
H         42.13421       96.23561       77.32650
H         41.75866       95.00419       74.88035
H         43.35614       95.32230       75.39734
N         43.81603       99.52307       77.50961
C         45.07517       99.84742       78.17338
C         46.30691       99.32207       77.45940
O         47.39923       99.61235       77.92497
H         43.59509      100.00635       76.62896
H         45.10936       99.42592       79.20141
H         45.13531      100.95190       78.27393
N         46.22258       98.50243       76.37276
C         47.37783       97.89964       75.70922
C         47.41430       98.30207       74.24203
O         46.53786       99.02907       73.79644
C         47.29841       96.35631       75.84767
C         47.30777       95.91625       77.31581
O         46.13375       95.88113       75.22079
H         45.29831       98.24629       76.01539
H         48.32808       98.24178       76.17509
H         48.19591       95.91129       75.36068
H         46.29554       94.92970       74.98760
H         46.42165       96.31247       77.85539
H         47.28478       94.80722       77.37474
H         48.23074       96.27522       77.81866
N         48.40501       97.83959       73.42357
C         48.46390       98.12513       71.99454
C         48.29140       96.81277       71.25202
O         49.14480       95.94445       71.37337
C         49.81148       98.81837       71.63289
C         49.91775       99.06399       70.10297
C         49.95494      100.13541       72.42056
C         51.27840       99.60652       69.66050
H         49.13847       97.23252       73.81885
H         47.63745       98.80753       71.69984
H         50.64122       98.14066       71.93662
H         49.11466       99.75617       69.76848
H         49.78643       98.10034       69.56887
H         49.89540       99.94874       73.51320
H         50.94006      100.60908       72.23910
H         49.15175      100.84863       72.13666
H         52.08723       98.91032       69.97057
H         51.29583       99.69459       68.55362
H         51.47588      100.61257       70.07995
N         47.18569       96.59533       70.48159
C         46.95864       95.36469       69.73358
C         46.72715       95.66362       68.26099
O         45.72360       95.23951       67.70655
C         45.79777       94.55487       70.35430
C         44.55149       95.36578       70.56482
O         44.01224       95.97064       69.65267
O         44.02219       95.40398       71.79250
H         46.46067       97.32699       70.43671
H         47.85302       94.70578       69.77537
H         46.12190       94.17369       71.34834
H         45.57588       93.66997       69.72011
N         47.66298       96.34832       67.54550
C         47.56760       96.51664       66.10194
C         47.57225       97.98683       65.69152
O         48.53467       98.67192       65.99881
C         48.78006       95.82628       65.44034
C         48.72173       95.99293       63.94040
C         49.63442       96.83973       63.28959
C         47.72588       95.34670       63.18962
C         49.53899       97.05042       61.91206
C         47.63823       95.55478       61.81058
C         48.54088       96.41006       61.17312
H         48.50010       96.70394       68.02865
H         46.66044       96.01712       65.71405
H         48.81929       94.74559       65.69859
H         49.70546       96.29606       65.84232
H         50.40149       97.35800       63.85170
H         47.01131       94.69254       63.67417
H         50.23358       97.71836       61.42002
H         46.86408       95.06062       61.23837
H         48.46499       96.57951       60.10739
N         46.59929       98.50859       64.87407
C         46.76485       99.76760       64.16240
C         46.47938      100.99696       64.99696
O         46.61875      102.08795       64.45689
C         45.79205       99.62263       62.98637
C         44.65001       98.86163       63.62492
C         45.40659       97.81238       64.43424
H         47.79321       99.85825       63.74628
H         45.52361      100.56755       62.46771
H         46.25172       98.93644       62.23622
H         44.13692       99.55705       64.32736
H         43.89815       98.44214       62.92341
H         44.77373       97.45820       65.27732
H         45.70088       96.96119       63.78835
N         46.08557      100.93196       66.30110
C         45.83701      102.13950       67.08260
C         47.09946      102.97021       67.30908
O         46.97691      104.07445       67.82103
C         45.15438      101.81148       68.42812
C         46.02762      100.99417       69.39657
C         45.27542      100.73115       70.66858
O         45.03971       99.58665       71.02011
O         44.85246      101.76051       71.42677
H         45.91793      100.01038       66.72851
H         45.11400      102.75953       66.50477
H         44.21583      101.25190       68.21789
H         44.87253      102.76919       68.92003
H         46.95469      101.55381       69.64384
H         46.31760      100.02673       68.93527
N         48.34231      102.51513       66.97312
C         49.53214      103.31097       67.18051
H         50.42796      102.74660       66.84336
H         49.46526      104.25211       66.59419
H         49.64699      103.54946       68.25883
H         48.46915      101.57788       66.56827
Ca        44.10582       97.18713       73.12706
O         41.71897       98.49640       70.60982
H         41.86205       97.64035       70.13364
H         40.74198       98.64825       70.55551
O         44.63899      101.16203       74.42934
H         43.65075      101.17091       74.47347
H         44.88550      102.09418       74.20629

Ca 1.0



