%chk=apoCaM-CA-Ng.loop4.water5.frame787.chk
%nprocshared=20
%mem=10GB
%nosave
#b3lyp/svp scf=(tight,noincore,xqc) Test 
#IOP(5/87=12) Density=Current Pop=(MK,readradii) iop(6/33=2) iop(6/42=6)

apoCaM-CA-Ng.loop4.water5.frame787 

   -3  1 
C         91.14215      -21.85453       -2.43069
C         90.80881      -23.29679       -2.67613
O         90.95373      -23.75091       -3.79811
H         92.20817      -21.67311       -2.68229
H         90.50355      -21.20992       -3.06993
H         90.97605      -21.57445       -1.36920
N         90.37504      -24.09437       -1.66258
C         90.03410      -25.50483       -1.82348
C         91.22213      -26.28017       -2.37698
O         91.07951      -27.01454       -3.34636
C         88.76189      -25.67775       -2.69344
C         87.54514      -24.99404       -2.12680
O         87.59552      -24.32661       -0.95768
O         86.48875      -25.05530       -2.73355
H         90.30036      -23.69360       -0.71500
H         89.81426      -25.91898       -0.81425
H         88.52536      -26.76005       -2.78476
H         88.94368      -25.27794       -3.71391
N         92.45218      -26.12571       -1.81324
C         93.63378      -26.83927       -2.28885
C         93.49624      -28.31970       -1.94336
O         93.23139      -28.60574       -0.78426
C         94.95851      -26.21381       -1.72727
C         95.10618      -26.26061       -0.18287
C         95.10809      -24.77509       -2.27014
C         96.51468      -25.88275        0.28587
H         92.54614      -25.45024       -1.04148
H         93.69089      -26.71057       -3.38931
H         95.79810      -26.80952       -2.13688
H         94.95265      -27.29427        0.17833
H         94.36120      -25.60190        0.30995
H         96.09121      -24.33720       -2.01115
H         95.04484      -24.77451       -3.37938
H         94.31068      -24.11093       -1.87465
H         97.26206      -26.56592       -0.17410
H         96.77235      -24.83648        0.03125
H         96.57918      -25.98965        1.38861
N         93.60819      -29.34573       -2.84145
C         93.95470      -29.25022       -4.26002
C         93.84046      -30.63625       -4.88318
O         94.53330      -31.54322       -4.44027
C         95.40435      -28.74110       -4.45407
C         95.79916      -28.66972       -5.90122
O         96.84042      -29.39667       -6.34968
O         95.19243      -27.94042       -6.66968
H         93.42761      -30.29019       -2.46273
H         93.24267      -28.56145       -4.76570
H         96.10628      -29.41378       -3.91367
H         95.53171      -27.72678       -4.05521
N         92.98816      -30.86623       -5.91976
C         92.82443      -32.17115       -6.54488
C         93.21634      -32.17501       -8.00819
O         93.02280      -33.19876       -8.64779
H         92.42088      -30.08501       -6.28441
H         91.75245      -32.45251       -6.46298
H         93.41937      -32.95533       -6.03112
N         93.75348      -31.07720       -8.61404
C         94.04570      -30.99847      -10.03964
C         95.51530      -30.72611      -10.33441
O         96.02993      -31.34482      -11.25727
C         93.10009      -29.97930      -10.71569
C         92.94880      -28.65751      -10.00234
O         91.73677      -28.29024       -9.54453
O         93.89662      -27.91340       -9.82935
H         93.91969      -30.22837       -8.05763
H         93.81824      -31.96090      -10.55324
H         92.08795      -30.44047      -10.73373
H         93.40936      -29.82514      -11.77314
N         96.26785      -29.83458       -9.62606
C         97.64211      -29.52792      -10.00421
C         97.70686      -28.66739      -11.25814
O         98.79498      -28.44933      -11.77002
H         95.86967      -29.35942       -8.80704
H         98.20698      -30.47724      -10.13277
H         98.13856      -28.95096       -9.19341
N         96.58206      -28.06517      -11.74472
C         96.51631      -27.13318      -12.85867
C         97.39502      -25.90487      -12.66218
O         97.74100      -25.25326      -13.63735
C         96.63219      -27.84359      -14.22166
C         95.50118      -28.88678      -14.36334
C         95.39533      -29.43670      -15.76040
N         95.49625      -30.76495      -15.99631
O         95.17935      -28.67336      -16.69026
H         95.69386      -28.21624      -11.26616
H         95.48699      -26.70717      -12.85931
H         97.62693      -28.32094      -14.35281
H         96.49815      -27.07600      -15.01524
H         94.52390      -28.40642      -14.13670
H         95.65579      -29.70571      -13.62725
H         95.65968      -31.43007      -15.22694
H         95.39583      -31.13145      -16.95468
N         97.68481      -25.46718      -11.40167
C         98.34214      -24.19839      -11.09588
C         97.47874      -23.33039      -10.17305
O         97.90324      -22.22527       -9.86262
C         99.73433      -24.44644      -10.44974
C         99.65247      -25.28435       -9.16058
C        100.68972      -25.10881      -11.45054
H         97.39954      -26.05124      -10.60434
H         98.50196      -23.60986      -12.02678
H        100.17667      -23.45875      -10.18927
H         98.98306      -24.80052       -8.41866
H         99.27794      -26.30878       -9.36774
H        100.65999      -25.37813       -8.70396
H        100.79575      -24.47013      -12.35380
H        101.69628      -25.22830      -10.99612
H        100.31679      -26.10704      -11.76007
N         96.27963      -23.76246       -9.67619
C         95.46110      -23.01328       -8.72911
C         94.09415      -22.73678       -9.34926
O         93.84287      -23.20843      -10.45222
C         95.40028      -23.85770       -7.43859
C         94.61732      -23.24793       -6.31296
N         93.55781      -23.90279       -5.78826
O         94.95187      -22.16609       -5.85333
H         95.91169      -24.68473       -9.94371
H         95.93116      -22.03144       -8.49809
H         96.44016      -24.01150       -7.07366
H         94.98181      -24.85734       -7.68739
H         93.26434      -24.82190       -6.15226
H         93.03540      -23.48884       -5.00739
N         93.18658      -21.90903       -8.74646
C         91.94521      -21.51676       -9.42363
C         91.35526      -20.23349       -8.85325
O         91.89284      -19.71242       -7.88393
C         90.95267      -22.70962       -9.53011
C         89.85265      -22.80652       -8.49047
C         90.10701      -22.78960       -7.10901
C         88.52109      -22.94112       -8.93383
C         89.04173      -22.89358       -6.20127
C         87.47038      -23.06347       -8.02470
C         87.72540      -23.03787       -6.65550
O         86.70103      -23.15469       -5.78701
H         93.45337      -21.46354       -7.85813
H         92.24618      -21.24558      -10.46084
H         91.51736      -23.66503       -9.55396
H         90.46275      -22.63434      -10.52474
H         91.11704      -22.68451       -6.73571
H         88.29081      -22.97069       -9.99125
H         89.22278      -22.86314       -5.14157
H         86.45683      -23.18056       -8.38757
H         86.83345      -23.14405       -4.82849
N         90.27636      -19.63256       -9.43551
C         89.78054      -18.33308       -8.99160
C         88.36491      -18.45315       -8.45754
O         87.46808      -18.72114       -9.24528
C         89.81637      -17.31516      -10.14668
C         91.24001      -17.06848      -10.66063
C         91.23162      -16.06984      -11.78158
O         91.89569      -14.90549      -11.65382
O         90.62794      -16.30988      -12.81548
H         89.81497      -20.09171      -10.23602
H         90.43965      -17.93188       -8.20556
H         89.39963      -16.34724       -9.78780
H         89.17898      -17.68408      -10.98138
H         91.68817      -18.01551      -11.03026
H         91.86574      -16.68150       -9.82684
N         88.04994      -18.29430       -7.13668
C         89.03449      -18.12865       -6.06432
C         89.70485      -16.76425       -6.10282
O         89.28127      -15.89706       -6.85524
C         88.38004      -18.37347       -4.68484
C         87.81995      -19.80516       -4.59474
C         87.12695      -20.07198       -3.29603
O         87.52783      -21.09487       -2.51938
O         86.15574      -19.40827       -2.96904
H         87.05482      -18.39288       -6.88308
H         89.81655      -18.90931       -6.19503
H         87.56710      -17.63032       -4.52776
H         89.13303      -18.24503       -3.87634
H         88.65237      -20.52657       -4.72426
H         87.07751      -19.99117       -5.39550
N         90.80627      -16.53407       -5.33207
C         91.54649      -15.28787       -5.33575
H         92.58612      -15.48131       -5.67664
H         91.09616      -14.52700       -6.00682
H         91.58053      -14.87576       -4.30595
H         91.16428      -17.29112       -4.73043
Ca        86.29565      -21.64935       -0.71400
O         82.62579      -21.35619       -1.94014
H         82.14815      -21.00579       -2.73336
H         81.92830      -21.82335       -1.41525
O         84.56097      -23.47173        0.97725
H         83.66660      -23.14544        1.24898
H         84.39482      -24.37259        0.60197
O         84.25999      -19.77883        0.51256
H         84.19195      -19.33692       -0.37106
H         83.56331      -20.48208        0.49352
O         83.62890      -24.16174       -2.47347
H         83.73370      -24.76299       -3.25312
H         83.38931      -24.76404       -1.72546
O         84.44686      -21.63710       -4.34002
H         84.75445      -21.07056       -5.09125
H         84.12491      -22.46794       -4.77108

Ca 1.0



