%chk=apoCaM-CA-Ng.loop2.water4.frame573.chk
%nprocshared=20
%mem=10GB
%nosave
#b3lyp/svp scf=(tight,noincore,xqc) Test 
#IOP(5/87=12) Density=Current Pop=(MK,readradii) iop(6/33=2) iop(6/42=6)

apoCaM-CA-Ng.loop2.water4.frame573 

   -2  1 
C         61.03275       18.40164       81.90408
C         59.67454       18.86025       82.34403
O         59.49867       19.17112       83.51360
H         61.74757       18.41259       82.75480
H         60.96450       17.36510       81.51153
H         61.41477       19.07103       81.10564
N         58.65001       18.91233       81.44759
C         57.29820       19.31327       81.81831
C         57.27895       20.75116       82.30016
O         57.54295       21.64528       81.50717
C         56.34667       19.15057       80.61212
C         54.93531       19.55381       80.94134
O         54.25790       18.91691       81.91497
O         54.39836       20.46228       80.32703
H         58.84065       18.62519       80.47441
H         56.94870       18.63570       82.62917
H         56.34510       18.08893       80.28434
H         56.71838       19.76997       79.76431
N         56.97712       21.04112       83.59989
C         56.87623       22.40608       84.10452
C         58.17843       22.83426       84.76130
O         59.02465       21.97277       84.95966
C         55.64428       22.50259       85.01336
H         56.83736       20.26351       84.26360
H         56.73385       23.06924       83.25827
H         55.75591       21.82384       85.88457
H         55.46230       23.51797       85.39589
H         54.74050       22.20081       84.44092
N         58.49211       24.12761       85.09425
C         57.66580       25.33244       84.92708
C         57.29878       25.69677       83.45165
O         57.90655       24.89455       82.48171
C         58.35358       26.54568       85.59822
C         59.72551       26.85133       85.05350
O         60.79958       26.77772       85.86339
O         59.87532       27.17836       83.88913
H         59.41889       24.25608       85.53086
H         56.73482       25.20684       85.50851
H         58.45749       26.32365       86.68355
H         57.71120       27.44793       85.50109
N         55.84214       25.85445       83.26053
C         55.36850       26.09834       81.88500
C         55.02197       24.81750       81.13142
O         55.23293       23.73981       81.65732
H         55.27621       25.11113       83.72702
H         56.10887       26.69796       81.31284
H         54.43627       26.69447       81.97338
N         54.46081       24.81301       79.88968
C         54.05353       25.99237       79.14199
C         54.83188       26.12929       77.84278
O         54.55891       27.07106       77.11197
C         52.54541       25.87674       78.82379
C         51.70680       25.71327       80.06825
N         50.95430       24.60153       80.25230
O         51.70372       26.59336       80.91563
H         54.27305       23.89442       79.45474
H         54.22529       26.91999       79.72478
H         52.38888       25.00060       78.15536
H         52.19790       26.78254       78.28132
H         50.94184       23.84626       79.55086
H         50.38057       24.49105       81.10151
N         55.79612       25.23580       77.46363
C         56.47672       25.33517       76.18363
C         57.35291       26.56478       76.03806
O         57.75809       26.83444       74.91639
H         56.02207       24.42570       78.05604
H         55.69778       25.34646       75.39028
H         57.11140       24.43818       76.01415
N         57.72898       27.33188       77.10549
C         58.54482       28.53861       76.97415
C         59.94601       28.28638       77.51556
O         60.10832       27.92610       78.67291
C         57.85035       29.74311       77.64673
C         56.57040       30.12478       76.89719
O         57.52729       29.45795       78.98364
H         57.45380       27.04139       78.05557
H         58.66038       28.80762       75.90181
H         58.51839       30.63467       77.59151
H         58.34032       29.63268       79.52273
H         56.80787       30.38815       75.84345
H         55.84346       29.28868       76.89794
H         56.09691       31.00651       77.37743
N         61.00989       28.40764       76.66932
C         62.38177       28.03723       77.00428
C         63.00726       29.01805       77.99010
O         63.12467       30.19316       77.67048
C         63.25141       27.94034       75.70223
C         64.72390       27.56927       76.03866
C         62.64824       26.89652       74.73082
C         65.65224       27.52479       74.82238
H         60.81535       28.70806       75.70352
H         62.36602       27.01749       77.43889
H         63.24679       28.93427       75.20047
H         64.75837       26.58521       76.55458
H         65.14741       28.33697       76.71881
H         61.60300       27.13163       74.45162
H         63.20348       26.87011       73.77323
H         62.66367       25.88479       75.18924
H         66.68840       27.31059       75.15621
H         65.36652       26.71998       74.11678
H         65.64479       28.50309       74.29701
N         63.51740       28.56586       79.17331
C         64.29769       29.36901       80.10478
C         65.73704       28.85236       80.22354
O         66.49174       29.45230       80.97531
C         63.62491       29.35834       81.48934
C         62.22146       29.88794       81.43093
O         62.00830       31.03241       81.06371
O         61.19117       29.10029       81.79100
H         63.38606       27.58337       79.42269
H         64.36274       30.42234       79.75220
H         64.20749       29.98482       82.19949
H         63.60965       28.31948       81.88130
N         66.20893       27.78901       79.49219
C         67.60363       27.34994       79.52195
C         67.69382       25.84275       79.79980
O         68.21689       25.11647       78.96875
C         68.23093       27.76286       78.16783
C         69.72417       27.55743       78.05958
C         70.59978       28.18207       78.96613
C         70.26000       26.77705       77.01910
C         71.98279       28.02463       78.83595
C         71.64487       26.62807       76.88931
C         72.50527       27.25090       77.79704
H         65.58916       27.30720       78.82877
H         68.16055       27.87959       80.32150
H         68.05157       28.85113       78.02663
H         67.70013       27.23120       77.34846
H         70.21662       28.79822       79.76890
H         69.60942       26.29590       76.29920
H         72.65006       28.51014       79.53644
H         72.05207       26.03529       76.08031
H         73.57683       27.13851       77.69277
N         67.19803       25.29304       80.95541
C         67.20530       23.86736       81.28666
C         66.76596       22.94182       80.16557
O         67.37300       21.89217       80.00055
C         66.20440       23.78522       82.44490
C         66.48410       25.07632       83.17460
C         66.58322       26.06439       82.01719
H         68.22163       23.58322       81.64308
H         65.16491       23.85457       82.04951
H         66.28989       22.86410       83.06061
H         65.75233       25.35821       83.96062
H         67.49049       24.97541       83.64417
H         65.57989       26.39856       81.67849
H         67.19975       26.93057       82.34113
N         65.73467       23.28217       79.34113
C         65.25634       22.43891       78.24789
C         66.40846       22.08005       77.32982
O         66.69911       20.90116       77.17976
C         64.12755       23.08126       77.38254
C         62.76144       23.30882       78.06817
C         62.64193       24.55409       78.89562
O         61.48506       24.83169       79.52097
O         63.54183       25.36669       78.93581
H         65.31592       24.19441       79.50382
H         64.85023       21.49803       78.68367
H         63.92048       22.33674       76.58156
H         64.46306       24.01230       76.87453
H         62.49459       22.41298       78.66626
H         61.99623       23.43007       77.27028
N         67.11991       23.04844       76.69170
C         68.23274       22.72973       75.82524
H         69.01252       22.18267       76.39749
H         67.88506       22.09954       74.97909
H         68.67696       23.66292       75.41995
H         66.87309       24.03963       76.83090
Ca        59.18193       26.32052       81.23526
O         58.53978       24.57469       78.92274
H         58.00154       24.14254       79.63266
H         59.19456       23.88407       78.65236
O         57.80575       28.86598       82.41967
H         57.01619       28.93219       81.82669
H         58.49344       29.42499       81.97927
O         62.81738       25.77122       82.62866
H         63.01552       25.96850       81.67926
H         62.98503       24.80005       82.71765
O         60.73162       23.38003       81.86491
H         59.78365       23.09907       81.84444
H         61.10784       22.93139       82.66257

Ca 1.0



