%chk=apoCaM-CA-Ng.loop4.water4.frame171.chk
%nprocshared=20
%mem=10GB
%nosave
#b3lyp/svp scf=(tight,noincore,xqc) Test 
#IOP(5/87=12) Density=Current Pop=(MK,readradii) iop(6/33=2) iop(6/42=6)

apoCaM-CA-Ng.loop4.water4.frame171 

   -3  1 
C         57.07634       68.09362       16.81662
C         55.79216       68.37170       16.10045
O         55.41285       67.57549       15.26168
H         57.78969       68.92604       16.65572
H         56.87169       67.97696       17.90159
H         57.53096       67.14918       16.44347
N         55.04388       69.46745       16.41483
C         53.73144       69.75273       15.84236
C         52.75979       68.62974       16.13000
O         52.24419       68.01568       15.21393
C         53.76422       70.27973       14.38166
C         54.60292       69.63543       13.29437
O         54.45045       68.37844       12.82146
O         55.42916       70.33998       12.73510
H         55.38809       70.09518       17.15735
H         53.29357       70.61509       16.39759
H         54.15238       71.32189       14.46434
H         52.71704       70.37705       14.02132
N         52.46425       68.35683       17.43645
C         51.52085       67.37332       17.97003
C         50.06457       67.76669       17.71550
O         49.37886       68.06140       18.68573
C         51.85927       65.91352       17.56378
C         50.96414       64.87761       18.30332
C         53.34817       65.60025       17.80433
C         51.06951       64.88539       19.83721
H         52.96686       68.91202       18.14761
H         51.65716       67.42928       19.07202
H         51.67549       65.79390       16.47551
H         51.24205       63.86155       17.95167
H         49.90048       65.04827       18.03232
H         53.98968       66.26224       17.18935
H         53.62936       65.74732       18.86726
H         53.57379       64.55351       17.50926
H         52.10551       64.67830       20.17422
H         50.72909       65.84802       20.26868
H         50.41298       64.09477       20.25519
N         49.51746       67.82509       16.46593
C         48.15624       68.28996       16.23319
C         47.12389       67.26647       16.71918
O         46.34461       67.63611       17.58608
C         47.95300       68.75571       14.76683
C         48.88356       69.88798       14.41805
O         49.67881       69.77033       13.49921
O         48.83685       71.04221       15.10990
H         50.08164       67.58522       15.64754
H         48.00505       69.22322       16.82446
H         46.90962       69.11508       14.63742
H         48.13234       67.95975       14.03200
N         47.01137       65.98026       16.25909
C         47.86928       65.39750       15.23888
C         47.46236       64.00357       14.79312
O         46.53275       63.44671       15.35942
H         46.25749       65.40568       16.66566
H         48.91265       65.38282       15.61206
H         47.76365       66.00215       14.35377
N         48.09203       63.33433       13.77326
C         49.22264       63.79534       12.95623
C         50.40542       64.13529       13.84597
O         50.84693       65.27546       13.84875
C         48.83203       64.93416       11.98236
C         47.62912       64.56400       11.16183
O         46.51397       65.31655       11.22564
O         47.65360       63.58108       10.43844
H         47.75042       62.38250       13.56481
H         49.53201       62.96021       12.28931
H         49.68475       65.13150       11.29802
H         48.63151       65.88516       12.49845
N         50.94527       63.22152       14.70012
C         50.55846       61.82457       14.76949
C         49.70429       61.57576       15.97557
O         49.39881       62.50640       16.70965
H         51.65069       63.54075       15.37777
H         51.47571       61.19768       14.79195
H         49.98097       61.50102       13.88428
N         49.26995       60.31687       16.23977
C         48.43453       59.99885       17.38506
C         49.23846       59.35386       18.50916
O         48.65755       59.08541       19.54869
C         47.14470       59.25985       16.94853
C         47.26061       58.00592       16.06062
C         48.07530       56.89967       16.66324
N         47.49960       55.74936       17.07808
O         49.28068       57.03192       16.75400
H         49.58887       59.54849       15.62860
H         48.06829       60.93401       17.86493
H         46.53737       59.98340       16.35901
H         46.55815       59.00992       17.85854
H         47.68156       58.25914       15.06330
H         46.22215       57.64787       15.88776
H         46.48133       55.61171       17.01368
H         48.07758       54.99774       17.48115
N         50.59819       59.20759       18.42059
C         51.44891       58.85285       19.55928
C         52.25562       57.58002       19.33360
O         53.00822       57.21733       20.23155
C         52.37034       60.05508       19.92396
C         51.53712       61.25019       20.41030
C         53.28620       60.49487       18.76860
H         51.07495       59.44059       17.54146
H         50.82777       58.64509       20.45780
H         53.01729       59.74644       20.77501
H         52.20492       62.07755       20.73125
H         50.86657       61.62468       19.60777
H         50.91720       60.95402       21.28373
H         52.70275       60.89891       17.91480
H         53.96783       61.30170       19.11244
H         53.90486       59.64426       18.41535
N         52.12506       56.82050       18.21117
C         52.76529       55.52281       18.01728
C         53.68690       55.50445       16.79913
O         54.58235       54.67458       16.77973
C         51.67957       54.43366       17.79740
C         50.73513       54.10609       18.94176
N         50.85819       54.62040       20.18854
O         49.83092       53.31397       18.72222
H         51.49682       57.14756       17.47210
H         53.38044       55.23406       18.89870
H         52.17087       53.47473       17.52204
H         51.05793       54.75401       16.93303
H         51.61813       55.25372       20.44654
H         50.18988       54.35331       20.92709
N         53.43694       56.26643       15.68913
C         54.12420       56.07661       14.41389
C         54.72187       57.37846       13.89265
O         54.01112       58.37023       13.83127
C         53.08240       55.61147       13.37232
C         52.30850       54.38152       13.78529
C         52.92630       53.12307       13.88599
C         50.93407       54.49347       14.05613
C         52.17268       51.99637       14.24214
C         50.18852       53.37263       14.42172
C         50.80009       52.12004       14.51092
O         50.05818       51.04651       14.85016
H         52.65839       56.93593       15.69325
H         54.90826       55.29066       14.48033
H         53.57162       55.41290       12.39470
H         52.36429       56.44638       13.21657
H         53.98231       53.00984       13.67416
H         50.43666       55.45297       13.98986
H         52.65303       51.02778       14.30466
H         49.13165       53.48029       14.63047
H         50.43335       50.15680       14.90974
N         55.98446       57.39661       13.36480
C         56.53858       58.49299       12.55907
C         56.82553       59.79178       13.30540
O         57.30427       60.71127       12.65418
C         55.63619       58.78347       11.32544
C         55.39637       57.56036       10.42497
C         56.66451       57.06023        9.79508
O         57.31601       57.78870        9.06324
O         57.07961       55.79955       10.02094
H         56.54618       56.53359       13.41658
H         57.52648       58.15613       12.17211
H         56.09279       59.58363       10.70271
H         54.65118       59.16848       11.65849
H         54.69501       57.84703        9.61205
H         54.92013       56.74824       11.01020
N         56.61506       59.95554       14.64249
C         56.91793       61.20618       15.34209
C         58.04520       61.02631       16.35133
O         58.40815       62.00864       16.98527
C         55.65219       61.71483       16.06307
C         54.46663       62.04571       15.14033
C         54.63421       63.32651       14.36244
O         53.76674       64.33863       14.58160
O         55.51714       63.44858       13.52905
H         56.24597       59.17111       15.19883
H         57.26968       61.98898       14.63740
H         55.87691       62.61784       16.67356
H         55.33298       60.90942       16.75770
H         53.58316       62.18183       15.79787
H         54.24986       61.19893       14.45552
N         58.66535       59.82794       16.55562
C         59.74031       59.68188       17.51360
H         60.58930       60.34242       17.23568
H         59.38126       59.94813       18.53062
H         60.09762       58.63036       17.52660
H         58.38439       58.98974       16.02867
Ca        53.76269       66.34222       13.53534
O         51.26349       67.33785       11.70159
H         51.41619       68.01707       12.40492
H         50.65093       67.77544       11.05875
O         56.72587       66.57884       12.30927
H         56.46564       65.99715       13.06655
H         57.20680       67.33314       12.73359
O         52.71976       64.11693       11.53427
H         53.30713       63.32122       11.57689
H         52.70337       64.36341       10.57588
O         53.84483       66.96102       10.18613
H         54.35620       67.79951       10.06136
H         54.15733       66.36757        9.45815

Ca 1.0



