%chk=apoCaM-CA-Ng.loop2.water3.frame384.chk
%nprocshared=20
%mem=10GB
%nosave
#b3lyp/svp scf=(tight,noincore,xqc) Test 
#IOP(5/87=12) Density=Current Pop=(MK,readradii) iop(6/33=2) iop(6/42=6)

apoCaM-CA-Ng.loop2.water3.frame384 

   -2  1 
C         15.79715       90.44631       17.56753
C         14.77544       89.53791       18.18547
O         13.84959       89.13118       17.49929
H         16.80143       89.98234       17.62795
H         15.55710       90.63980       16.49995
H         15.80690       91.41629       18.10894
N         14.86547       89.20762       19.50514
C         13.85790       88.38649       20.18068
C         14.01741       88.40481       21.69384
O         15.02685       88.86825       22.19985
C         13.86904       86.92440       19.67151
C         15.16357       86.21748       19.97829
O         16.21250       86.60902       19.49311
O         15.16733       85.13957       20.78608
H         15.64398       89.61707       20.04219
H         12.86913       88.85093       19.97140
H         13.69286       86.88345       18.57790
H         13.03832       86.36831       20.15614
N         13.01194       87.92628       22.48549
C         13.07533       87.93212       23.94598
C         13.24685       89.33890       24.49704
O         13.26868       90.29301       23.72905
C         11.81114       87.28466       24.52571
H         12.16778       87.55165       22.02690
H         13.95493       87.32736       24.25962
H         11.71083       86.24807       24.14022
H         11.85841       87.23023       25.63282
H         10.91094       87.86697       24.23389
N         13.41187       89.53672       25.83610
C         13.74017       90.83748       26.40116
C         12.61356       91.32885       27.27026
O         12.82265       91.63165       28.43810
C         15.09372       90.73303       27.14142
C         16.12756       90.20716       26.18852
O         16.33837       90.88458       25.05111
O         16.69084       89.14492       26.39270
H         13.36462       88.73156       26.47859
H         13.85152       91.60125       25.59877
H         15.00185       90.04479       28.01016
H         15.40485       91.73449       27.51045
N         11.36555       91.46252       26.73624
C         10.26337       92.01480       27.49640
C         10.45742       93.49066       27.78427
O          9.70896       94.01481       28.59655
H         11.19123       91.16610       25.76356
H         10.16924       91.44014       28.44362
H          9.31047       91.90208       26.93481
N         11.39423       94.23973       27.12081
C         11.61091       95.66049       27.37330
C         11.14732       96.52569       26.20918
O         11.08432       97.73477       26.38893
C         13.11530       95.92797       27.58960
C         13.72628       95.10455       28.69183
N         13.33988       95.26526       29.97672
O         14.60122       94.29543       28.42042
H         11.96579       93.80225       26.38393
H         11.02949       95.97554       28.26810
H         13.28854       97.00390       27.80784
H         13.64203       95.68573       26.63781
H         12.61865       95.95601       30.22745
H         13.77841       94.70716       30.72436
N         10.83527       96.00302       24.98440
C         10.40214       96.81649       23.85844
C         11.43056       97.84117       23.41195
O         12.51203       97.93033       23.97740
H         10.89269       94.98873       24.82369
H          9.46694       97.34662       24.14443
H         10.17388       96.15622       22.99471
N         11.10180       98.70355       22.41015
C         11.92845       99.85056       22.03702
C         13.25566       99.48978       21.36202
O         14.17799      100.28430       21.47886
C         11.12323      100.89988       21.22050
C         10.63730      100.40209       19.85058
O         10.03860      101.38239       21.97889
H         10.16649       98.59792       21.99206
H         12.18748      100.37281       22.98718
H         11.78978      101.76920       21.03055
H          9.32548      100.69192       21.98820
H          9.95789       99.53051       19.94191
H         10.09086      101.21680       19.33044
H         11.49318      100.11241       19.22460
N         13.43250       98.34433       20.63493
C         14.71270       97.96023       20.02071
C         15.16152       96.64968       20.63110
O         14.40116       95.69090       20.63098
C         14.61508       97.85816       18.47241
C         14.25593       99.21481       17.81099
C         15.92309       97.30823       17.86074
C         15.27205      100.34836       18.01801
H         12.63213       97.70389       20.52225
H         15.49734       98.71183       20.24184
H         13.80641       97.13710       18.21946
H         13.28280       99.55417       18.19587
H         14.13816       99.05692       16.71730
H         16.13422       96.28227       18.22821
H         15.83745       97.24954       16.75531
H         16.79304       97.94556       18.12371
H         16.26159      100.08817       17.59098
H         14.91130      101.26101       17.49952
H         15.39199      100.60373       19.08912
N         16.39096       96.56541       21.21242
C         16.80915       95.42240       22.00959
C         18.02373       95.81064       22.85059
O         19.00982       95.09144       22.89197
C         17.07011       94.15950       21.13752
C         17.23004       92.92849       21.99066
O         17.06630       92.99872       23.19963
O         17.52374       91.72710       21.45893
H         16.99854       97.39872       21.18085
H         15.97920       95.22740       22.72600
H         17.98200       94.32142       20.52145
H         16.22248       93.96596       20.44937
N         18.00615       96.99129       23.52802
C         19.09855       97.49971       24.34952
C         20.42435       97.50821       23.59146
O         20.46707       98.05468       22.49740
C         18.72718       98.92474       24.83176
C         19.74852       99.53104       25.76483
C         20.99202       99.98699       25.28643
C         19.45692       99.65558       27.13293
C         21.92778      100.53820       26.16391
C         20.39749      100.20451       28.00776
C         21.63260      100.64339       27.52447
H         17.16267       97.57895       23.43512
H         19.17372       96.85954       25.24998
H         17.75614       98.83296       25.36740
H         18.56002       99.61347       23.97352
H         21.24130       99.92687       24.23597
H         18.50628       99.31655       27.52545
H         22.88155      100.88449       25.78718
H         20.16768      100.28755       29.06145
H         22.35935      101.06826       28.20356
N         21.57272       96.98469       24.13619
C         22.88699       97.10580       23.51983
C         23.16819       96.01034       22.49999
O         24.22062       96.04980       21.87816
C         23.82870       96.99944       24.72401
C         23.12008       95.96100       25.57507
C         21.66808       96.41672       25.46980
H         23.02098       98.09860       23.03647
H         24.89065       96.78095       24.48212
H         23.78755       97.96161       25.28521
H         23.22217       94.97879       25.06060
H         23.48810       95.85294       26.61739
H         20.98968       95.55129       25.63198
H         21.45344       97.22052       26.20723
N         22.29383       94.98856       22.29373
C         22.50437       93.93147       21.31279
C         22.47431       94.52845       19.92440
O         23.43367       94.36101       19.18381
C         21.42606       92.83843       21.47271
C         21.58311       92.13186       22.83236
C         20.47753       91.16115       23.08546
O         19.67974       91.33714       24.15551
O         20.30270       90.20808       22.34361
H         21.44226       94.95241       22.86437
H         23.49117       93.44224       21.48227
H         21.53122       92.07830       20.66682
H         20.41568       93.29557       21.38900
H         21.56841       92.87141       23.65925
H         22.55712       91.59733       22.86818
N         21.41275       95.27663       19.51716
C         21.36985       95.90090       18.21382
H         20.43748       96.49520       18.10987
H         22.23886       96.58331       18.09248
H         21.39392       95.12483       17.42043
H         20.62198       95.43225       20.16094
Ca        17.31530       90.24369       23.13034
O         19.64579       88.55298       25.08589
H         19.75862       89.23513       25.79462
H         18.79003       88.10880       25.30613
O         18.47612       89.18891       20.20964
H         18.07010       88.29038       20.28565
H         18.47572       89.38066       19.23914
O         17.42808       87.22396       23.04528
H         17.23384       86.79408       22.17564
H         17.62692       86.47115       23.65609

Ca 1.0



