%chk=apoCaM-CA-Ng.loop3.water5.frame349.chk
%nprocshared=20
%mem=10GB
%nosave
#b3lyp/svp scf=(tight,noincore,xqc) Test 
#IOP(5/87=12) Density=Current Pop=(MK,readradii) iop(6/33=2) iop(6/42=6)

apoCaM-CA-Ng.loop3.water5.frame349 

   0  1 
C         96.61524       72.36356       44.68227
C         98.04189       72.82485       44.61637
O         98.66585       72.65673       43.58151
H         96.01224       72.88679       43.91197
H         96.57609       71.26923       44.49501
H         96.17041       72.56101       45.68065
N         98.63534       73.39681       45.70147
C        100.03585       73.80248       45.76033
C        100.92914       72.58314       45.56062
O        101.82586       72.59297       44.72804
C        100.31003       74.97118       44.78462
C        101.69042       75.54510       44.94643
O        102.06972       76.06938       46.12737
O        102.46643       75.55824       44.00435
H         98.07665       73.51865       46.56022
H        100.22190       74.17854       46.79142
H         99.58233       75.78641       44.98694
H        100.16560       74.63649       43.73817
N        100.69551       71.47014       46.31390
C        101.48641       70.23963       46.25593
C        101.53725       69.55423       44.88875
O        102.27359       68.58377       44.77053
C        100.99207       69.23846       47.33219
C         99.53203       68.76439       47.14523
C         99.13810       67.79724       48.27081
C         97.67344       67.35053       48.15856
N         97.33079       66.42323       49.23799
H         99.92915       71.52873       47.00000
H        102.53362       70.51431       46.51055
H        101.08103       69.72934       48.32611
H        101.66161       68.35053       47.33541
H         99.41698       68.25560       46.16355
H         98.83765       69.62997       47.17076
H         99.27806       68.30192       49.25208
H         99.79895       66.90423       48.23029
H         97.50574       66.85097       47.17893
H         97.00762       68.24086       48.21731
H         97.46826       66.88360       50.16734
H         96.32806       66.14145       49.14665
H         97.92892       65.56711       49.17892
N        100.81007       69.97843       43.81545
C        100.88613       69.33991       42.50000
C        102.30307       69.45583       41.93100
O        103.09309       70.23977       42.44137
C         99.80332       69.97504       41.59537
C         99.57029       69.33019       40.25875
O         98.49394       68.80857       40.01402
O        100.49515       69.40082       39.29163
H        100.16039       70.76101       43.93938
H        100.64105       68.26409       42.64350
H        100.02981       71.05196       41.44274
H         98.84286       69.90814       42.15444
N        102.72245       68.63854       40.92385
C        104.09243       68.62914       40.42859
C        104.51356       69.92956       39.77938
O        105.69311       70.24627       39.83368
H        102.06874       67.94243       40.53798
H        104.22313       67.81245       39.68851
H        104.77949       68.40362       41.27421
N        103.61632       70.71788       39.12260
C        103.96174       71.99030       38.49671
C        103.22513       73.16360       39.13944
O        103.49836       74.29218       38.75262
C        103.74878       71.88554       36.96874
C        102.35302       71.49284       36.54528
N        101.30179       72.32020       36.73005
O        102.17822       70.41338       36.00015
H        102.64167       70.40547       39.05872
H        105.04174       72.20764       38.64576
H        104.44671       71.09865       36.60550
H        104.03088       72.83571       36.46700
H        101.42477       73.24788       37.15559
H        100.36049       72.03797       36.42287
N        102.30362       72.99006       40.13383
C        101.63479       74.08051       40.82546
C        100.13935       74.09438       40.58192
O         99.45571       74.86502       41.23790
H        102.05422       72.04289       40.44767
H        102.03884       75.07475       40.53797
H        101.82237       73.94294       41.91178
N         99.56094       73.31335       39.62385
C         98.12637       73.29838       39.36406
C         97.84627       72.61279       38.03607
O         98.24274       71.47372       37.83612
C         97.38772       72.58119       40.50620
C         95.91991       72.39812       40.21707
C         95.06609       73.50339       40.07565
C         95.39962       71.10178       40.07006
C         93.71066       73.31073       39.78838
C         94.04934       70.91213       39.77820
C         93.19900       72.01666       39.63519
O         91.89338       71.84544       39.34863
H        100.16287       72.72673       39.03456
H         97.75766       74.34528       39.29194
H         97.50342       73.14396       41.45202
H         97.85454       71.58802       40.63602
H         95.44911       74.51039       40.18383
H         96.04136       70.23520       40.17039
H         93.05935       74.16796       39.67707
H         93.66829       69.90569       39.66079
H         91.50636       70.96599       39.23082
N         97.13252       73.27701       37.08664
C         96.86668       72.75572       35.75424
C         98.08295       73.03190       34.88972
O         98.53189       72.12381       34.20685
C         95.54292       73.35762       35.18921
C         94.36565       72.96313       36.12779
C         95.27190       72.84522       33.75885
C         93.01923       73.58776       35.76111
H         96.78670       74.22403       37.30498
H         96.69572       71.65489       35.79761
H         95.63835       74.46580       35.15747
H         94.59191       73.29547       37.15940
H         94.25375       71.85582       36.14544
H         94.36236       73.31176       33.33103
H         96.09918       73.10388       33.07543
H         95.15113       71.74105       33.75180
H         92.25823       73.27132       36.50663
H         93.09320       74.69507       35.77961
H         92.66648       73.25277       34.76571
N         98.72320       74.23988       34.92389
C         99.95409       74.48328       34.17328
C         99.71132       74.57523       32.67129
O        100.67877       74.57167       31.92561
C        100.66567       75.74697       34.67757
O        100.94707       75.61022       36.04454
H         98.37022       74.97134       35.56046
H        100.64181       73.62838       34.36437
H        100.01589       76.63485       34.51707
H        101.61982       75.86988       34.11549
H        101.54142       76.36663       36.28703
N         98.44666       74.64121       32.15853
C         98.11627       74.62379       30.73820
C         98.61131       73.33676       30.09710
O         99.26290       73.36727       29.06036
C         98.60778       75.89640       30.03625
H         97.64824       74.67750       32.80281
H         97.00565       74.61594       30.66017
H         98.27358       75.90099       28.97733
H         98.17943       76.78888       30.54091
H         99.71407       75.97328       30.05961
N         98.35807       72.15447       30.71910
C         98.80029       70.85032       30.24858
C         97.65581       69.86692       30.37189
O         97.04565       69.81627       31.43230
C         99.96809       70.38064       31.11157
H         97.87687       72.18747       31.63131
H         99.18063       70.89354       29.20344
H         99.66968       70.33020       32.17241
H        100.31128       69.37714       30.77820
H        100.81656       71.09150       31.01747
N         97.31967       69.03522       29.34328
C         96.22406       68.06526       29.39717
C         94.85256       68.73539       29.41148
O         93.86551       68.01861       29.50517
C         96.37543       67.07251       30.58357
C         97.70988       66.31551       30.55079
C         97.79677       65.34248       31.69309
O         97.75319       65.78530       32.96486
O         97.91446       64.14720       31.47501
H         97.88239       69.06795       28.47914
H         96.25176       67.45695       28.46582
H         95.55348       66.32455       30.52900
H         96.26919       67.59202       31.55740
H         98.55908       67.02680       30.63102
H         97.79439       65.76828       29.58636
N         94.69995       70.08657       29.26919
C         93.40956       70.74590       29.24923
H         92.56629       70.04034       29.40104
H         93.37646       71.51030       30.05310
H         93.27179       71.24940       28.26908
H         95.51866       70.69506       29.13895
Ca       100.00689       68.59601       37.25309
O         99.22665       69.55447       34.74160
H         98.77741       69.15680       33.95486
H        100.07412       69.93158       34.39603
O        102.33437       66.77536       37.52894
H        101.91318       66.74465       38.42431
H        103.06611       67.43561       37.61933
O         98.84279       65.94414       37.97253
H         99.67285       65.40718       37.91816
H         98.44530       65.87850       37.06794
O         96.96781       68.77271       36.37087
H         96.73947       68.24529       35.56431
H         96.41660       68.37914       37.09234
O        100.77319       67.03969       34.77619
H        100.79095       66.15624       34.33088
H        101.68947       67.39791       34.66329

Ca 1.0



