%chk=apoCaM-CA-Ng.loop3.water5.frame404.chk
%nprocshared=20
%mem=10GB
%nosave
#b3lyp/svp scf=(tight,noincore,xqc) Test 
#IOP(5/87=12) Density=Current Pop=(MK,readradii) iop(6/33=2) iop(6/42=6)

apoCaM-CA-Ng.loop3.water5.frame404 

   0  1 
C         22.90469      100.62602      -13.11240
C         24.19425      100.11538      -13.68540
O         25.19314      100.81717      -13.60100
H         22.07162       99.91364      -13.29087
H         23.01319      100.77555      -12.01749
H         22.64713      101.59510      -13.58818
N         24.25684       98.88040      -14.25693
C         25.47212       98.31785      -14.82552
C         26.03441       97.28324      -13.87741
O         25.32486       96.36932      -13.47277
C         25.19003       97.72484      -16.21654
C         26.43436       97.13758      -16.83029
O         26.46802       95.95668      -17.13755
O         27.51911       97.90940      -17.03801
H         23.41148       98.28734      -14.24816
H         26.23605       99.11628      -14.96565
H         24.81474       98.52755      -16.88658
H         24.40775       96.93814      -16.13771
N         27.33401       97.37970      -13.49556
C         28.00219       96.49722      -12.55550
C         28.59416       97.34553      -11.46342
O         29.20135       98.37033      -11.76264
C         29.12612       95.71142      -13.25457
C         28.62201       94.80617      -14.39457
C         27.65450       93.67861      -13.97039
C         28.25394       92.62142      -13.02291
N         29.35839       91.88599      -13.64266
H         27.90647       98.13488      -13.90901
H         27.29991       95.76288      -12.10413
H         29.66958       95.09483      -12.50615
H         29.85414       96.43533      -13.68197
H         29.49767       94.36216      -14.90920
H         28.10696       95.44574      -15.13782
H         27.30388       93.15952      -14.88796
H         26.75524       94.11377      -13.49084
H         27.44764       91.89708      -12.76982
H         28.59118       93.08532      -12.07132
H         30.17371       92.51558      -13.81348
H         29.66478       91.12274      -12.99723
H         29.04380       91.45537      -14.54281
N         28.50992       96.95845      -10.17052
C         29.04130       97.75539       -9.08145
C         30.37181       97.19536       -8.61453
O         30.70422       96.05563       -8.92039
C         27.99551       97.75595       -7.96959
C         28.43520       98.42227       -6.71736
O         28.65223       97.73594       -5.74544
O         28.47541       99.74807       -6.56257
H         28.09167       96.03693       -9.95374
H         29.23139       98.79896       -9.41891
H         27.78869       96.68996       -7.71820
H         27.03371       98.19954       -8.30735
N         31.21868       97.99402       -7.90915
C         32.52531       97.57729       -7.44088
C         32.40360       96.48189       -6.41848
O         32.99414       95.42770       -6.60143
H         30.93694       98.96776       -7.71339
H         33.02477       98.44303       -6.95555
H         33.15338       97.25618       -8.30149
N         31.62596       96.66995       -5.31458
C         31.44385       95.66058       -4.27657
C         30.02553       95.10624       -4.29580
O         29.49424       94.76032       -3.25018
C         31.87930       96.23569       -2.90384
C         31.09629       97.43936       -2.40865
N         31.47309       98.05525       -1.26460
O         30.13495       97.86961       -3.02836
H         31.12369       97.56289       -5.22937
H         32.09845       94.78769       -4.48528
H         32.94312       96.54472       -2.99700
H         31.82126       95.43957       -2.13119
H         32.27957       97.71318       -0.72309
H         30.96682       98.88532       -0.92383
N         29.37276       94.94528       -5.48359
C         28.04655       94.36522       -5.64606
C         26.88707       95.14373       -5.03810
O         25.76021       94.73773       -5.28495
H         29.85808       95.21496       -6.35176
H         28.04199       93.32642       -5.25240
H         27.84492       94.30765       -6.73899
N         27.05062       96.22756       -4.22230
C         25.94497       96.94217       -3.60775
C         26.51552       97.86921       -2.48305
O         26.43196       99.24742       -2.76618
C         25.07241       97.70236       -4.63920
C         23.85905       98.29682       -3.96176
C         22.87462       97.45371       -3.41863
C         23.70818       99.68882       -3.84536
C         21.76745       97.99200       -2.75897
C         22.60558      100.22532       -3.17398
C         21.63230       99.37705       -2.62606
O         20.56797       99.87941       -1.96889
H         27.99107       96.51290       -3.94177
H         25.31746       96.15430       -3.13570
H         24.72194       97.03373       -5.45257
H         25.69192       98.48990       -5.11654
H         22.96529       96.37811       -3.50475
H         24.45379      100.35871       -4.25373
H         21.01809       97.32997       -2.34390
H         22.51254      101.29931       -3.07468
H         20.44461      100.83060       -1.84070
N         25.79977       97.62090       -1.23522
C         26.44447       98.26975       -0.08792
C         27.79202       97.62741        0.21781
O         28.78216       98.34153        0.22681
C         25.45148       98.26583        1.10106
C         24.08419       98.90208        0.70022
C         26.04384       98.97338        2.33061
C         24.15722      100.34490        0.17640
H         25.70070       96.59713       -1.04752
H         26.64220       99.33840       -0.32034
H         25.24478       97.21184        1.39280
H         23.40418       98.87787        1.57817
H         23.60863       98.28590       -0.09413
H         25.31646       98.94602        3.16948
H         26.96660       98.46100        2.66815
H         26.29992      100.02880        2.10644
H         23.13396      100.70316       -0.06150
H         24.59586      101.02808        0.93057
H         24.74611      100.40617       -0.76217
N         27.91620       96.29022        0.45230
C         29.19890       95.66078        0.75547
C         29.74369       96.17169        2.07309
O         30.94452       96.38062        2.17575
C         29.06322       94.13265        0.82630
O         28.59726       93.62311       -0.39497
H         27.07528       95.69606        0.41362
H         29.92599       95.87305       -0.06148
H         28.35520       93.83859        1.62870
H         30.04852       93.67181        1.07749
H         29.39143       93.51598       -0.98134
N         28.89597       96.41609        3.11903
C         29.28948       96.87661        4.44868
C         29.97061       98.25094        4.49192
O         30.30294       98.68337        5.58733
C         30.16448       95.80657        5.11811
H         27.89003       96.23748        2.97952
H         28.36294       96.96206        5.05944
H         29.62902       94.83212        5.11671
H         31.13008       95.67871        4.58719
H         30.37693       96.07990        6.17279
N         30.24537       98.98333        3.37226
C         31.02912      100.21238        3.40269
C         30.25505      101.38822        3.96080
O         29.23814      101.76090        3.39139
C         31.50319      100.57396        1.98979
H         29.97358       98.62502        2.45244
H         31.95290      100.02890        3.99651
H         32.11359       99.74420        1.57430
H         30.64020      100.75625        1.31435
H         32.13493      101.48829        2.02401
N         30.73645      102.06801        5.04042
C         30.19506      103.32863        5.53524
C         28.73839      103.17046        5.94011
O         27.87976      103.89209        5.44968
C         30.44672      104.43488        4.47586
C         30.26915      105.86340        5.01383
C         30.57891      106.87005        3.94024
O         29.90391      106.91366        2.92371
O         31.60444      107.72980        4.09411
H         31.57871      101.70757        5.51430
H         30.78082      103.60302        6.44132
H         29.79668      104.26949        3.58905
H         31.50539      104.35257        4.14168
H         30.97110      106.01522        5.86310
H         29.23598      106.03581        5.37717
N         28.38667      102.20371        6.82956
C         27.01295      101.99227        7.23085
H         26.38609      101.77237        6.33982
H         26.95087      101.13039        7.92823
H         26.62374      102.89748        7.74322
H         29.11357      101.58526        7.22021
Ca        27.73500      100.04331       -4.46683
O         26.21204      102.29715       -3.21372
H         26.81697      102.99577       -2.85921
H         26.08374      102.53801       -4.16558
O         31.41096      100.19979       -4.91078
H         31.74422      100.66764       -5.71712
H         32.22640       99.99108       -4.38909
O         30.47343      102.67759       -3.32290
H         30.53787      103.52746       -3.82652
H         30.49085      102.95143       -2.37163
O         28.70764      102.73992       -6.11418
H         27.94588      102.41958       -6.65962
H         28.29433      103.33169       -5.43672
O         28.55353      101.16870       -1.46167
H         28.85294      101.45255       -0.56191
H         28.92619      100.25905       -1.57465

Ca 1.0



