%chk=apoCaM-CA-Ng.loop3.water6.frame1096.chk
%nprocshared=20
%mem=10GB
%nosave
#b3lyp/svp scf=(tight,noincore,xqc) Test 
#IOP(5/87=12) Density=Current Pop=(MK,readradii) iop(6/33=2) iop(6/42=6)

apoCaM-CA-Ng.loop3.water6.frame1096 

   0  1 
C         45.22926       80.21934       33.08413
C         46.71467       80.26765       32.87837
O         47.23478       81.34764       32.66958
H         44.71482       80.61067       32.18187
H         44.87837       79.18382       33.27510
H         44.95872       80.85038       33.95764
N         47.46648       79.13531       32.94218
C         48.92204       79.11352       32.79088
C         49.38867       78.22137       31.64108
O         50.59351       78.09976       31.46706
C         49.58746       78.71135       34.12980
C         49.21073       77.36621       34.69014
O         48.39118       76.65323       34.13929
O         49.77893       76.95059       35.83747
H         46.97629       78.25102       33.13242
H         49.30553       80.13231       32.56048
H         49.32664       79.47410       34.89456
H         50.69079       78.72938       33.99597
N         48.51401       77.60720       30.78692
C         48.92036       76.77623       29.65357
C         49.80961       77.54673       28.69435
O         50.89263       77.08378       28.35963
C         49.55027       75.43996       30.12624
C         48.48560       74.54103       30.77435
C         49.00045       73.13602       31.13732
C         49.99855       73.07288       32.30664
N         49.40582       73.55349       33.55362
H         47.50245       77.75666       30.90469
H         48.01200       76.52281       29.06299
H         50.40411       75.62526       30.81213
H         49.93515       74.89273       29.23735
H         47.68249       74.39455       30.01920
H         48.02600       75.03623       31.65401
H         49.46691       72.67865       30.23750
H         48.12311       72.51148       31.41143
H         50.92043       73.64999       32.07853
H         50.28880       72.00800       32.44378
H         50.05742       73.36512       34.34849
H         49.26429       74.57960       33.48932
H         48.49303       73.07692       33.74011
N         49.39748       78.75403       28.21425
C         50.18015       79.54311       27.26791
C         50.84842       80.69878       27.98379
O         50.71569       81.84578       27.57626
C         49.31255       79.96231       26.05497
C         48.13967       80.85206       26.38372
O         47.89353       81.25672       27.64532
O         47.40498       81.22367       25.48327
H         48.51060       79.13453       28.57269
H         51.01674       78.93166       26.86622
H         48.92167       79.04558       25.56360
H         49.95117       80.50164       25.32215
N         51.61659       80.44448       29.07824
C         52.32978       81.49137       29.78151
C         53.03787       80.93344       31.00863
O         53.87144       80.05818       30.81929
H         51.69138       79.47373       29.41710
H         51.62742       82.30795       30.00063
H         53.09355       81.92351       29.10024
N         52.83221       81.36687       32.29285
C         51.87627       82.39591       32.70474
C         51.12914       81.98207       33.96722
O         51.61590       81.11097       34.67295
C         52.59615       83.75360       32.88971
C         53.44959       83.85073       34.13838
N         54.56725       83.10664       34.30667
O         53.12088       84.63700       35.01464
H         53.42563       80.94296       33.02143
H         51.11107       82.50961       31.92791
H         51.83081       84.54682       32.95673
H         53.20370       83.98599       31.98864
H         54.89949       82.46101       33.57994
H         55.12180       83.19598       35.17143
N         49.94339       82.53741       34.35410
C         49.17846       83.50946       33.57512
C         47.87574       83.89311       34.25270
O         47.65762       83.50599       35.39542
H         49.55171       82.18261       35.24047
H         48.94938       83.06881       32.58439
H         49.75093       84.44093       33.41966
N         46.94946       84.66355       33.60649
C         45.72405       85.11628       34.26196
C         44.46808       84.51795       33.63118
O         44.52340       83.97560       32.53681
C         45.69406       86.66046       34.25737
C         44.60915       87.22719       35.13710
C         43.55354       87.97364       34.58991
C         44.65043       87.00935       36.52528
C         42.54793       88.48144       35.41891
C         43.64708       87.51877       37.35066
C         42.58944       88.25485       36.79947
O         41.61066       88.74639       37.58507
H         47.12920       84.95290       32.63096
H         45.73522       84.76723       35.31562
H         45.58223       87.00528       33.20503
H         46.66369       87.05365       34.63492
H         43.50297       88.15534       33.52361
H         45.46028       86.44346       36.96884
H         41.73406       89.04972       34.98728
H         43.69300       87.33817       38.41716
H         41.60249       88.60571       38.54279
N         43.30808       84.50776       34.34692
C         42.05427       83.88107       33.91565
C         41.33314       84.65857       32.81446
O         41.75288       85.74807       32.45096
C         41.08907       83.67991       35.13915
C         41.66512       82.61069       36.09820
C         40.74631       85.00498       35.86450
C         40.69729       82.21334       37.21417
H         43.36678       84.87803       35.30260
H         42.28788       82.87419       33.50353
H         40.13292       83.26249       34.76443
H         42.62427       82.94943       36.54386
H         41.86507       81.69025       35.50585
H         41.61978       85.44235       36.38697
H         40.35138       85.75514       35.14896
H         39.96224       84.84380       36.63086
H         40.51045       83.05930       37.90543
H         39.73312       81.86774       36.78255
H         41.13626       81.38121       37.80327
N         40.18606       84.13719       32.27428
C         39.29943       84.86509       31.36858
C         39.68747       84.69405       29.91006
O         40.58816       83.93283       29.60069
C         37.84168       84.41303       31.59718
O         37.69540       83.04846       31.29143
H         39.86299       83.22200       32.61939
H         39.34455       85.94841       31.62006
H         37.13388       84.99415       30.96999
H         37.57284       84.61945       32.66098
H         37.26165       82.61324       32.07148
N         39.02487       85.40818       28.95537
C         39.32715       85.41433       27.52872
C         39.11492       84.06472       26.86013
O         39.97682       83.62328       26.11294
C         40.73190       85.99003       27.28053
H         38.26460       86.03476       29.25962
H         38.60203       86.10559       27.04545
H         40.93165       86.07462       26.19120
H         40.80954       87.00199       27.73000
H         41.51513       85.34752       27.73224
N         37.95671       83.36852       27.05436
C         37.61107       82.14197       26.34010
C         38.74090       81.12539       26.37985
O         39.25396       80.74156       25.33607
C         37.17378       82.47810       24.90737
H         37.27008       83.73216       27.73238
H         36.71716       81.68919       26.82506
H         36.83732       81.55379       24.38803
H         36.31401       83.18184       24.93670
H         37.99803       82.94111       24.32722
N         39.15806       80.62720       27.57294
C         40.20958       79.62623       27.69794
C         39.55042       78.29511       28.00125
O         39.78810       77.33255       27.28532
C         41.18132       80.01648       28.83246
C         42.48820       79.19246       28.82226
C         43.50035       79.81956       27.90644
O         43.91350       81.06711       28.20266
O         43.96815       79.21800       26.95294
H         38.66411       80.93502       28.42412
H         40.78803       79.54750       26.74856
H         40.65756       79.86638       29.79919
H         41.43508       81.09717       28.78036
H         42.29102       78.12490       28.58167
H         42.94848       79.23474       29.83166
N         38.66234       78.19395       29.03395
C         37.94769       76.98336       29.37307
H         36.85842       77.15668       29.23867
H         38.25047       76.12219       28.74346
H         38.13908       76.73509       30.43753
H         38.44715       79.02642       29.60173
Ca        45.39481       82.36594       27.12806
O         43.37697       83.77136       29.48168
H         43.11171       84.17965       30.34238
H         42.87571       82.92067       29.45375
O         46.08037       84.56452       25.40998
H         46.79488       85.24449       25.33077
H         45.35829       84.88416       24.81303
O         48.29701       84.13966       28.41605
H         48.76524       83.51569       29.02593
H         48.72415       83.99151       27.53529
O         46.08639       82.64381       30.30607
H         47.05733       82.62326       30.49148
H         45.86561       83.60747       30.30597
O         42.85020       83.43951       26.48432
H         42.48218       82.55894       26.22081
H         42.90400       83.95387       25.64064
O         45.48898       85.66001       28.64226
H         45.51888       86.35869       27.94228
H         44.89355       86.03190       29.34082

Ca 1.0



