%chk=apoCaM-CA-Ng.loop1.water2.frame69.chk
%nprocshared=20
%mem=10GB
%nosave
#b3lyp/svp scf=(tight,noincore,xqc) Test 
#IOP(5/87=12) Density=Current Pop=(MK,readradii) iop(6/33=2) iop(6/42=6)

apoCaM-CA-Ng.loop1.water2.frame69 

   0  1 
C         66.31123       47.01136       84.83538
C         66.11086       47.51546       86.23573
O         66.52023       48.62918       86.52762
H         67.39811       46.97360       84.61062
H         65.89623       45.98858       84.70824
H         65.80978       47.68907       84.11509
N         65.51248       46.72299       87.16637
C         65.34582       47.09639       88.56729
C         66.23315       46.23795       89.46617
O         66.16416       46.39906       90.67853
C         63.84867       47.05706       88.96849
C         63.18118       45.71142       88.85681
O         63.04765       45.16829       87.77232
O         62.66449       45.12800       89.95496
H         65.21128       45.78093       86.87909
H         65.68077       48.14276       88.73057
H         63.28615       47.78136       88.33899
H         63.75811       47.39504       90.02298
N         67.13314       45.35153       88.94192
C         68.04646       44.52588       89.72199
C         69.48538       44.86978       89.33209
O         69.75532       44.85290       88.13761
C         67.78649       43.04088       89.42272
C         66.34334       42.62378       89.75856
C         66.07884       41.13684       89.47874
C         66.85203       40.20120       90.42401
N         66.54342       38.80158       90.13697
H         67.20494       45.24573       87.91971
H         67.86683       44.65275       90.79783
H         68.50342       42.45233       90.03007
H         67.97912       42.83135       88.34738
H         65.64963       43.21420       89.12073
H         66.10894       42.84857       90.82232
H         66.33134       40.90949       88.41978
H         64.99237       40.95036       89.62272
H         66.56897       40.43125       91.47558
H         67.94682       40.34725       90.31712
H         66.84495       38.56303       89.16416
H         67.06193       38.19273       90.81059
H         65.51767       38.62758       90.24256
N         70.49947       45.15981       90.20759
C         70.44198       45.15851       91.66738
C         70.04706       43.77450       92.17494
O         68.97111       43.62143       92.73517
C         69.59943       46.34120       92.19689
C         70.16020       47.68088       91.77718
O         71.15654       47.75798       91.07430
O         69.56674       48.81749       92.17983
H         71.42404       45.36380       89.79639
H         71.46063       45.35534       92.07262
H         69.61660       46.29214       93.29604
H         68.54604       46.30016       91.88287
N         70.86167       42.68929       92.00563
C         72.22006       42.81048       91.49141
C         72.91672       41.48507       91.23141
O         72.29467       40.43927       91.33795
H         70.51400       41.76745       92.30940
H         72.79690       43.40917       92.22423
H         72.21003       43.32907       90.51559
N         74.21911       41.44221       90.81202
C         75.07255       42.62841       90.74243
C         75.37114       43.15175       92.14398
O         75.25708       42.39456       93.09837
C         76.38203       42.37744       89.94983
C         77.30624       41.34184       90.54381
O         78.54888       41.69353       90.92488
O         76.96262       40.17474       90.63766
H         74.59897       40.52516       90.53834
H         74.52213       43.40777       90.17152
H         76.93630       43.33923       89.87983
H         76.12652       42.06656       88.91338
N         75.75368       44.44631       92.33533
C         76.08364       45.02040       93.63520
C         74.92183       45.07430       94.61952
O         74.41580       44.02952       95.00104
H         75.85310       45.05539       91.50837
H         76.46535       46.05103       93.47425
H         76.90808       44.43223       94.09323
N         74.47998       46.27155       95.11677
C         73.51002       46.37333       96.21406
C         72.11548       46.73542       95.72325
O         71.92446       46.95690       94.53705
C         74.01587       47.36714       97.30338
C         74.01257       48.83625       96.84139
O         75.30844       46.99741       97.70939
H         74.89062       47.13883       94.74285
H         73.40943       45.37922       96.70284
H         73.33116       47.29514       98.17876
H         75.48209       47.45499       98.57442
H         74.34228       49.49267       97.67483
H         74.69381       49.00284       95.98368
H         72.98699       49.15225       96.55616
N         71.08398       46.79512       96.61857
C         69.70395       47.13651       96.29232
C         69.37459       48.47597       96.92874
O         69.52174       48.62046       98.13483
C         68.70962       46.02389       96.79572
C         68.70290       44.73921       95.92486
C         67.24925       46.52904       96.81465
C         69.99676       43.93874       95.89846
H         71.28694       46.60755       97.61160
H         69.55962       47.25811       95.20597
H         68.95965       45.76405       97.84843
H         68.41209       45.00160       94.88549
H         67.92360       44.05086       96.32223
H         66.56774       45.74640       97.21066
H         67.12898       47.40335       97.48678
H         66.91727       46.79568       95.79039
H         70.81139       44.50256       95.41492
H         70.28412       43.64157       96.92779
H         69.83321       43.01856       95.29720
N         68.81138       49.46313       96.16697
C         68.27447       50.70339       96.72427
C         66.74096       50.67796       96.76616
O         66.17519       51.55689       97.39729
C         68.80999       51.94231       95.96740
C         68.36289       51.97379       94.49774
O         70.21106       51.96114       96.04091
H         68.66051       49.27470       95.16568
H         68.59666       50.79130       97.78538
H         68.40596       52.84649       96.47876
H         70.50583       52.85354       95.71905
H         67.25528       51.95445       94.43394
H         68.72042       52.90543       94.01145
H         68.77389       51.11686       93.92650
N         66.01831       49.68649       96.15501
C         64.57760       49.44141       96.25600
C         63.71315       50.56900       95.71630
O         63.80588       51.68647       96.20299
C         64.15486       49.05443       97.69389
C         62.76119       48.41462       97.69300
O         64.14083       50.17453       98.54364
H         66.52258       48.99807       95.58569
H         64.38527       48.53266       95.63980
H         64.85312       48.27146       98.07457
H         64.89241       50.07919       99.18322
H         61.99720       49.11486       97.29361
H         62.76586       47.49838       97.06218
H         62.47515       48.12382       98.72441
N         62.80039       50.31875       94.73202
C         61.89338       51.33753       94.20559
C         62.27324       51.73839       92.78558
O         61.73718       52.71711       92.28537
C         60.42507       50.88102       94.36675
C         60.02125       49.70785       93.45317
C         58.60729       49.20827       93.79894
C         58.12185       48.07363       92.87901
N         57.86296       48.53964       91.51483
H         62.74901       49.36539       94.34413
H         62.00462       52.26333       94.81051
H         59.74675       51.73502       94.14972
H         60.27879       50.59433       95.43267
H         60.71671       48.85229       93.57534
H         60.07162       50.06021       92.40301
H         57.87292       50.04183       93.76428
H         58.63415       48.81576       94.83996
H         57.17069       47.67369       93.29577
H         58.86251       47.24316       92.86786
H         58.73739       48.88226       91.05964
H         57.48860       47.74410       90.94910
H         57.14687       49.30241       91.52968
N         63.24890       51.06718       92.10892
C         63.83659       51.50462       90.85110
C         62.83222       51.60946       89.72719
O         62.13343       50.64834       89.43579
C         64.97065       50.54404       90.43150
C         66.16095       50.47286       91.40983
C         66.88520       51.78709       91.52899
O         68.02571       51.89114       91.11517
O         66.30304       52.84923       92.11713
H         63.64834       50.22170       92.53199
H         64.27299       52.50868       90.99571
H         65.36802       50.85156       89.43934
H         64.54221       49.52784       90.32850
H         66.86385       49.71013       91.00819
H         65.85665       50.13029       92.42143
N         62.76940       52.76230       89.00265
C         61.89760       52.92725       87.86405
H         60.83839       52.85276       88.18258
H         62.06860       53.92673       87.40767
H         62.12268       52.15247       87.10053
H         63.39489       53.54765       89.24105
Ca        70.51077       50.73979       91.44952
O         69.55832       49.45854       88.69631
H         69.49680       49.76277       87.75617
H         70.01282       48.58050       88.64329
O         72.18757       50.43884       93.77854
H         71.99384       50.59757       94.73476
H         71.96219       49.48582       93.63668

Ca 1.0



