%chk=apoCaM-CA-Ng.loop2.water4.frame260.chk
%nprocshared=20
%mem=10GB
%nosave
#b3lyp/svp scf=(tight,noincore,xqc) Test 
#IOP(5/87=12) Density=Current Pop=(MK,readradii) iop(6/33=2) iop(6/42=6)

apoCaM-CA-Ng.loop2.water4.frame260 

   -2  1 
C         24.41948       21.39839       93.15948
C         24.13359       19.94749       93.42193
O         25.00994       19.25535       93.91578
H         25.27059       21.48793       92.45212
H         23.54033       21.91355       92.71751
H         24.68221       21.90478       94.11162
N         22.91385       19.41845       93.12799
C         22.57112       18.01657       93.34759
C         23.40319       17.12153       92.44330
O         23.40155       17.33390       91.23769
C         21.06432       17.80308       93.07747
C         20.60324       16.41114       93.42522
O         19.68487       16.23160       94.39399
O         21.04210       15.44151       92.82752
H         22.19138       20.04836       92.74463
H         22.74288       17.76676       94.41875
H         20.82168       18.02075       92.01444
H         20.49555       18.51766       93.71261
N         24.09333       16.05906       92.95316
C         24.83253       15.13225       92.09885
C         26.09527       15.74614       91.51295
O         26.68686       15.12450       90.64121
C         25.20462       13.86553       92.87622
H         24.02209       15.86424       93.96385
H         24.15718       14.82472       91.26857
H         25.87894       14.11310       93.72392
H         24.28567       13.38518       93.27500
H         25.71426       13.13613       92.21038
N         26.59358       16.93490       91.96535
C         27.79451       17.57682       91.44725
C         29.00629       16.67274       91.64219
O         29.70275       16.34855       90.69020
C         27.54055       18.04003       89.99515
C         28.67848       18.83695       89.43387
O         29.08965       19.95990       90.04975
O         29.22637       18.47843       88.40401
H         26.11868       17.41473       92.73823
H         27.97609       18.49316       92.05390
H         26.64024       18.69277       89.99034
H         27.33639       17.17021       89.33594
N         29.29198       16.20954       92.89141
C         30.39667       15.31519       93.19590
C         31.76252       15.97808       93.22163
O         32.71249       15.28382       93.55687
H         28.65150       16.45043       93.66330
H         30.38399       14.44574       92.50233
H         30.23878       14.92050       94.22332
N         31.96145       17.29645       92.92008
C         33.27161       17.93225       93.04686
C         33.65979       17.99040       94.51881
O         32.88198       18.48489       95.32343
C         33.26404       19.34294       92.41933
C         34.64169       19.97206       92.32951
N         34.79646       21.16764       91.71961
O         35.62499       19.40174       92.77928
H         31.16911       17.87073       92.60063
H         34.00788       17.33908       92.45688
H         32.57358       20.01203       92.97614
H         32.89226       19.25162       91.37873
H         33.98809       21.65555       91.31280
H         35.72921       21.59898       91.63969
N         34.84980       17.48189       94.93716
C         35.24200       17.37062       96.33135
C         35.30320       18.68360       97.09128
O         36.03749       19.57935       96.70144
H         35.50167       17.10212       94.23380
H         36.25549       16.91604       96.37387
H         34.54718       16.66679       96.83678
N         34.61748       18.80246       98.26568
C         34.77117       19.91731       99.20169
C         34.32958       21.26129       98.64002
O         35.01599       22.24045       98.90496
C         34.12658       19.61671      100.58739
C         32.61000       19.37424      100.57024
O         34.78363       18.53691      101.20904
H         34.03390       18.00460       98.55169
H         35.85673       20.01536       99.43197
H         34.30461       20.50359      101.23508
H         34.55092       17.70334      100.72441
H         32.34470       18.48008       99.97086
H         32.25575       19.20451      101.61015
H         32.07575       20.24983      100.16030
N         33.22611       21.39766       97.85133
C         32.81576       22.67882       97.26663
C         32.94349       22.63503       95.75126
O         33.32783       21.60374       95.20962
C         31.36857       23.07196       97.70872
C         30.31056       22.02287       97.27801
C         31.32655       23.35117       99.22054
C         28.87520       22.54250       97.39434
H         32.68005       20.55281       97.62063
H         33.49207       23.49987       97.59334
H         31.11328       24.03101       97.21399
H         30.42279       21.09289       97.87574
H         30.45736       21.76689       96.20725
H         32.06843       24.13627       99.48060
H         30.33278       23.72758       99.53507
H         31.56114       22.43982       99.80232
H         28.61058       22.80424       98.43742
H         28.74575       23.43827       96.74838
H         28.16880       21.75973       97.04644
N         32.60896       23.72303       94.99738
C         32.60449       23.72622       93.54271
C         33.40289       24.91136       92.96388
O         33.40465       25.08424       91.75636
C         31.12248       23.70458       93.10411
C         30.89097       23.35259       91.65909
O         31.91565       23.10422       90.82310
O         29.74729       23.25848       91.24304
H         32.25752       24.57182       95.46790
H         33.05458       22.78634       93.16262
H         30.63761       24.66998       93.35490
H         30.60751       22.90640       93.68443
N         34.14884       25.74343       93.75831
C         34.94728       26.85066       93.22698
C         34.06423       27.96904       92.70056
O         33.22352       28.44050       93.45424
C         35.89380       27.41527       94.31871
C         36.74871       28.55036       93.78237
C         38.07899       28.31923       93.39370
C         36.21481       29.84737       93.64157
C         38.84830       29.35769       92.85611
C         36.98701       30.88098       93.10804
C         38.30183       30.63578       92.71079
H         34.20201       25.56045       94.76899
H         35.61924       26.45621       92.43698
H         36.55042       26.57448       94.63363
H         35.34487       27.75779       95.22326
H         38.51432       27.33257       93.48580
H         35.19895       30.06436       93.94253
H         39.86740       29.17037       92.54500
H         36.56259       31.87115       92.99912
H         38.89634       31.43682       92.29096
N         34.25275       28.52924       91.46096
C         33.54825       29.72259       91.02039
C         32.11312       29.42898       90.65175
O         31.36370       30.36686       90.41681
C         34.37835       30.20263       89.82560
C         34.84956       28.89103       89.22967
C         35.22674       28.09578       90.47952
H         33.56323       30.50689       91.80980
H         33.85923       30.89753       89.13082
H         35.28786       30.71385       90.21686
H         33.96389       28.40663       88.75765
H         35.65618       28.96411       88.47006
H         35.15821       27.01145       90.24556
H         36.24255       28.35522       90.84919
N         31.66094       28.15062       90.56080
C         30.27693       27.82575       90.28728
C         29.48277       28.08845       91.54864
O         28.52909       28.85281       91.51375
C         30.15385       26.36216       89.82638
C         31.00018       26.10715       88.56011
C         30.80628       24.72199       88.02742
O         29.70564       24.36669       87.64214
O         31.85164       23.87796       87.93271
H         32.31786       27.37034       90.69548
H         29.89777       28.44465       89.44247
H         29.08395       26.15146       89.60788
H         30.49279       25.68782       90.63217
H         32.07905       26.24707       88.78553
H         30.71741       26.82759       87.76357
N         29.87086       27.51813       92.72460
C         29.20217       27.77989       93.97927
H         28.14677       27.44190       93.92877
H         29.71581       27.23351       94.80022
H         29.23913       28.86678       94.20714
H         30.69632       26.90109       92.73839
Ca        30.80247       21.10365       89.14069
O         28.17023       21.95324       87.85729
H         27.30605       22.43577       87.85916
H         28.53394       22.09481       86.94707
O         31.45020       20.84591       86.21475
H         32.05880       20.07449       86.09246
H         30.79932       20.77135       85.47267
O         32.16067       18.25408       89.00226
H         31.56486       18.10838       89.77924
H         31.96742       17.49445       88.39820
O         33.71817       21.07244       88.47953
H         34.26144       20.41631       87.97537
H         34.36055       21.77506       88.75052

Ca 1.0



