%chk=apoCaM-CA-Ng.loop4.water3.frame996.chk
%nprocshared=20
%mem=10GB
%nosave
#b3lyp/svp scf=(tight,noincore,xqc) Test 
#IOP(5/87=12) Density=Current Pop=(MK,readradii) iop(6/33=2) iop(6/42=6)

apoCaM-CA-Ng.loop4.water3.frame996 

   -3  1 
C         62.34505      109.96871       72.36676
C         62.79629      111.34190       72.76685
O         63.87977      111.74903       72.37314
H         61.39445      110.04181       71.79736
H         63.10517      109.47324       71.72491
H         62.18269      109.34892       73.27290
N         61.98958      112.12344       73.54700
C         62.31214      113.47919       74.00459
C         62.42176      114.49069       72.87128
O         62.73726      115.64091       73.14702
C         63.60051      113.48766       74.84046
C         63.56054      112.45805       75.91902
O         64.46608      111.48027       75.85121
O         62.74295      112.49617       76.82475
H         61.08884      111.72764       73.85687
H         61.48887      113.82399       74.66836
H         63.77546      114.48528       75.29552
H         64.47256      113.27071       74.18587
N         62.17103      114.14973       71.57558
C         62.27475      115.09394       70.47271
C         61.16386      116.12174       70.65298
O         60.02180      115.68653       70.71953
C         62.10448      114.36236       69.09489
C         63.12514      113.19669       68.92596
C         62.25330      115.37679       67.94376
C         62.92882      112.39190       67.63803
H         61.86182      113.19665       71.36262
H         63.29292      115.52810       70.47654
H         61.08116      113.92583       69.05028
H         63.00761      112.46140       69.74488
H         64.16626      113.58202       68.96724
H         62.07057      114.90798       66.95796
H         61.50235      116.18575       68.03580
H         63.27331      115.81996       67.94946
H         63.14702      112.99960       66.73815
H         63.62680      111.52845       67.63269
H         61.88900      112.00301       67.58168
N         61.32920      117.47504       70.71544
C         62.55929      118.25058       70.59967
C         62.61223      119.25456       71.74270
O         61.64317      119.98241       71.91573
C         62.49979      118.97411       69.24214
C         63.65877      119.88413       68.99519
O         63.45222      121.06144       68.75179
O         64.91916      119.40746       69.00239
H         60.45941      118.02857       70.78639
H         63.47076      117.62332       70.60599
H         61.55682      119.56084       69.17116
H         62.49432      118.21824       68.43353
N         63.71128      119.37858       72.54575
C         63.75014      120.31322       73.66603
C         64.70627      121.47280       73.47531
O         64.71001      122.33739       74.34063
H         64.54345      118.79697       72.36206
H         64.01078      119.76087       74.59511
H         62.75124      120.76725       73.83262
N         65.55491      121.57081       72.40937
C         66.49201      122.68577       72.25341
C         66.53765      123.28601       70.84840
O         67.17052      124.32226       70.69780
C         67.89053      122.24464       72.73294
C         68.33808      120.91686       72.17147
O         68.48368      120.75152       70.97418
O         68.56505      119.88616       73.00760
H         65.61099      120.78456       71.74835
H         66.18390      123.53282       72.90660
H         67.83757      122.12511       73.83642
H         68.64078      123.03722       72.52000
N         65.92461      122.71537       69.77264
C         65.97251      123.27303       68.42544
C         67.35651      123.29203       67.79533
O         67.45367      123.74562       66.66498
H         65.38891      121.85554       69.90173
H         65.55856      124.30448       68.44252
H         65.32659      122.66071       67.75892
N         68.46522      122.81666       68.44080
C         69.82099      122.82810       67.90148
C         69.98695      121.89450       66.70921
O         71.04624      121.91695       66.09670
C         70.29377      124.27622       67.62746
C         70.19924      125.12584       68.91174
C         70.72527      126.53000       68.76557
N         70.69364      127.36535       69.83004
O         71.18179      126.92201       67.70154
H         68.37307      122.43615       69.38075
H         70.51094      122.42714       68.67820
H         69.69996      124.74972       66.81808
H         71.35614      124.24574       67.30008
H         70.77816      124.62772       69.71968
H         69.13811      125.19627       69.22760
H         70.31143      127.04866       70.73402
H         71.05122      128.32881       69.75427
N         69.02022      120.98986       66.36964
C         69.13668      120.05111       65.25980
C         69.11316      118.59951       65.72745
O         69.16455      117.73214       64.86674
C         67.98992      120.28807       64.23049
C         66.58672      120.05044       64.82406
C         68.07293      121.69380       63.62494
H         68.16103      120.93791       66.93242
H         70.10160      120.19263       64.72360
H         68.12446      119.56651       63.39357
H         66.35392      120.77254       65.63322
H         65.81590      120.16505       64.03350
H         66.49820      119.02147       65.22891
H         69.06133      121.84357       63.14132
H         67.28548      121.82232       62.85194
H         67.93320      122.47074       64.40349
N         69.03338      118.23878       67.04882
C         68.87245      116.83320       67.43647
C         69.18742      116.61434       68.91946
O         69.23491      117.57099       69.67784
C         67.40232      116.43800       67.10126
C         67.07068      114.96615       67.04763
N         66.59832      114.42216       65.89771
O         67.17843      114.26846       68.04272
H         69.06428      118.96711       67.77303
H         69.61303      116.24459       66.85015
H         67.15079      116.84676       66.10284
H         66.72187      116.94371       67.82176
H         66.46932      114.99604       65.05003
H         66.34306      113.42533       65.85082
N         69.45566      115.36169       69.39426
C         69.68089      115.07797       70.81246
C         70.12044      113.63534       71.00441
O         69.42333      112.73624       70.55629
C         68.38188      115.32842       71.61547
C         68.51216      114.88395       73.05582
C         69.46645      115.46300       73.90985
C         67.68680      113.85718       73.54553
C         69.59719      115.01256       75.22793
C         67.81819      113.41105       74.86170
C         68.77708      113.98463       75.70702
O         68.91984      113.55467       76.97662
H         69.50578      114.58511       68.71880
H         70.48574      115.73977       71.20030
H         67.55861      114.76261       71.12571
H         68.10774      116.40344       71.59002
H         70.11499      116.25392       73.55446
H         66.94705      113.39208       72.90578
H         70.34050      115.45943       75.87619
H         67.17841      112.61532       75.22043
H         68.37662      112.84074       77.34051
N         71.25500      113.35195       71.71396
C         71.73265      111.99550       71.94320
C         71.75488      111.69248       73.43924
O         72.63402      112.21835       74.10912
C         73.16868      111.85483       71.38263
C         73.26512      112.15464       69.88232
C         74.70075      112.12573       69.43595
O         75.43168      111.00233       69.56803
O         75.21516      113.12626       68.96102
H         71.80299      114.12832       72.11514
H         71.08967      111.27540       71.41612
H         73.54769      110.82688       71.57822
H         73.83030      112.57607       71.91563
H         72.85056      113.16533       69.67482
H         72.67948      111.40574       69.30908
N         70.85892      110.88445       74.08746
C         69.61761      110.33515       73.54302
C         69.83785      109.35685       72.40574
O         70.59181      108.40585       72.56357
C         68.82525      109.60038       74.65845
C         67.36653      109.34539       74.24248
C         66.63846      108.43100       75.19864
O         66.62108      108.63198       76.53209
O         66.01365      107.48498       74.74878
H         71.03015      110.73773       75.09581
H         68.99783      111.19467       73.20593
H         68.78658      110.22704       75.57701
H         69.34468      108.64944       74.91173
H         67.31721      108.87966       73.23365
H         66.85223      110.32945       74.17977
N         69.14093      109.49923       71.24487
C         69.24323      108.55043       70.15950
H         70.28010      108.53092       69.76559
H         68.95799      107.53717       70.51689
H         68.54945      108.83942       69.34117
H         68.48152      110.28513       71.14150
Ca        64.95318      109.88389       77.28771
O         64.46239      110.48027       80.16445
H         64.46540      111.32994       79.65544
H         65.42037      110.25606       80.27752
O         61.68403      109.22895       78.36333
H         60.99703      109.91696       78.17544
H         61.51031      108.95378       79.29862
O         64.50507      107.05589       78.75400
H         64.90251      106.38473       79.36394
H         64.04872      106.51979       78.05766

Ca 1.0



