%chk=apoCaM-CA-Ng.loop2.water4.frame17.chk
%nprocshared=20
%mem=10GB
%nosave
#b3lyp/svp scf=(tight,noincore,xqc) Test 
#IOP(5/87=12) Density=Current Pop=(MK,readradii) iop(6/33=2) iop(6/42=6)

apoCaM-CA-Ng.loop2.water4.frame17 

   -2  1 
C         72.76806       39.44742       42.89385
C         71.35553       39.92656       42.72604
O         70.42788       39.17808       42.99801
H         73.30459       40.10204       43.61211
H         72.79310       38.40226       43.26896
H         73.28883       39.48550       41.91289
N         71.12294       41.18620       42.26730
C         69.78779       41.72395       42.02651
C         69.08110       40.92191       40.94794
O         67.93714       40.53599       41.14184
C         69.88502       43.20220       41.59508
C         68.52276       43.82386       41.44120
O         67.68340       43.88010       42.49368
O         68.17344       44.28396       40.36616
H         71.94077       41.78555       42.07092
H         69.20381       41.69416       42.97457
H         70.45182       43.28243       40.64079
H         70.43331       43.77650       42.37281
N         69.73436       40.61538       39.78957
C         69.15493       39.88735       38.66790
C         68.52060       38.56179       39.07406
O         67.53548       38.16895       38.46282
C         68.17428       40.79217       37.90905
H         70.72097       40.90137       39.69510
H         69.97918       39.65462       37.95757
H         68.69403       41.72092       37.58978
H         67.79981       40.28050       36.99639
H         67.31096       41.06760       38.55005
N         69.01636       37.82482       40.11287
C         68.45197       36.54799       40.53845
C         66.96825       36.69636       40.85294
O         66.14357       36.06859       40.20194
C         68.77337       35.46489       39.48160
C         68.31679       34.08237       39.87557
O         68.76663       33.47359       40.99432
O         67.53348       33.48423       39.15502
H         69.82532       38.18362       40.63948
H         68.96085       36.23941       41.47144
H         69.87407       35.42627       39.33438
H         68.30978       35.73756       38.50889
N         66.56436       37.51624       41.86505
C         65.16595       37.71293       42.22239
C         64.81691       37.11479       43.57108
O         63.65855       37.20326       43.95302
H         67.27977       38.00915       42.42176
H         64.49369       37.23185       41.47985
H         64.94265       38.80122       42.21506
N         65.73766       36.45185       44.33006
C         65.40083       35.76600       45.57328
C         64.87451       36.71575       46.62885
O         65.56977       37.64317       47.02105
C         66.63002       35.02346       46.13436
C         67.07250       33.91969       45.20970
N         66.27142       32.85676       44.96448
O         68.16893       33.98057       44.68207
H         66.70840       36.38257       43.99369
H         64.61771       35.00765       45.35464
H         66.39023       34.56501       47.11860
H         67.45567       35.75517       46.28640
H         65.34718       32.77618       45.41208
H         66.58234       32.10308       44.33404
N         63.64590       36.48842       47.17156
C         63.08640       37.25428       48.26715
C         63.93432       37.10849       49.50798
O         64.23402       35.98635       49.89285
H         63.08033       35.70155       46.81741
H         62.08020       36.84151       48.49937
H         62.95851       38.31862       47.97440
N         64.31402       38.20582       50.21892
C         65.09090       38.11292       51.44966
C         66.55429       37.83143       51.13393
O         67.07951       36.82269       51.58350
C         64.89810       39.39311       52.30957
C         65.64191       39.30112       53.64599
O         65.31439       40.54092       51.61580
H         63.97117       39.12889       49.91115
H         64.67639       37.28395       52.06927
H         63.80483       39.46897       52.52324
H         64.82164       41.31087       52.00309
H         65.43443       40.20721       54.25331
H         65.30141       38.41032       54.21528
H         66.73818       39.23152       53.48246
N         67.27668       38.71333       50.38566
C         68.70794       38.57756       50.09500
C         68.99419       37.34423       49.24388
O         68.05905       36.63597       48.89464
C         69.26130       39.88830       49.43902
C         68.62216       40.17566       48.05061
C         69.09947       41.06936       50.42121
C         69.19918       41.41107       47.35657
H         66.78073       39.54169       50.03808
H         69.25048       38.44686       51.05783
H         70.35444       39.76553       49.28835
H         67.52487       40.31468       48.13068
H         68.80846       39.30572       47.38529
H         69.60248       41.98067       50.04207
H         68.03371       41.31280       50.60845
H         69.57824       40.82244       51.39302
H         68.73840       41.51860       46.35200
H         68.96951       42.33501       47.92591
H         70.29836       41.31155       47.23689
N         70.27057       37.03719       48.85054
C         70.57650       35.87188       48.02701
C         71.71945       35.06271       48.63971
O         72.58376       34.59375       47.91435
C         70.85526       36.37107       46.58970
C         70.85733       35.31110       45.52222
O         70.88601       35.70311       44.23264
O         70.71041       34.12972       45.79455
H         71.04667       37.66773       49.09923
H         69.68388       35.21047       47.98448
H         71.79175       36.96699       46.55556
H         70.01538       37.04768       46.31672
N         71.79560       34.88795       49.99194
C         72.84542       34.11941       50.66421
C         74.25021       34.60176       50.29727
O         74.54258       35.76431       50.53264
C         72.70475       34.26501       52.20532
C         73.86046       33.59860       52.92581
C         74.00545       32.20288       52.91464
C         74.83764       34.38474       53.56649
C         75.11438       31.60455       53.52272
C         75.94722       33.78340       54.16621
C         76.08683       32.39425       54.14274
H         71.07317       35.33529       50.57725
H         72.72271       33.05149       50.39823
H         71.73497       33.86236       52.56817
H         72.71553       35.35411       52.43807
H         73.26775       31.58134       52.42366
H         74.75808       35.46500       53.57754
H         75.22603       30.52863       53.50363
H         76.70430       34.39597       54.63950
H         76.95070       31.93087       54.60153
N         75.21125       33.74166       49.82125
C         76.61391       34.11517       49.71121
C         76.87799       35.03551       48.54187
O         77.96798       35.59254       48.47639
C         77.33027       32.76602       49.59656
C         76.32347       31.94653       48.81526
C         75.00973       32.34767       49.48424
H         76.95390       34.61964       50.64325
H         78.36104       32.80442       49.18393
H         77.37915       32.31170       50.61379
H         76.32169       32.33404       47.77104
H         76.50650       30.85151       48.78649
H         74.17544       32.18978       48.76637
H         74.83570       31.77182       50.41522
N         75.93941       35.25874       47.58424
C         76.10300       36.25056       46.53721
C         76.05682       37.61883       47.18300
O         77.00755       38.37606       47.05736
C         74.99295       36.11526       45.47532
C         75.08420       34.76621       44.74174
C         73.99133       34.62709       43.72604
O         73.11122       33.61296       43.82362
O         73.89972       35.42120       42.80348
H         75.06143       34.72293       47.61233
H         77.07725       36.10039       46.01686
H         75.10555       36.93297       44.72956
H         73.99499       36.21034       45.95281
H         74.99904       33.92757       45.46519
H         76.06707       34.68339       44.22927
N         74.97664       37.98030       47.93275
C         74.89819       39.25109       48.61643
H         73.94098       39.31673       49.17744
H         75.73694       39.34328       49.33916
H         74.94223       40.08183       47.88218
H         74.18994       37.32307       48.04302
Ca        70.11555       34.33963       42.60032
O         69.37410       31.18013       44.51737
H         69.01821       31.17991       45.44143
H         69.27146       30.24428       44.21091
O         69.61483       30.59804       40.92537
H         70.16816       31.29245       40.48775
H         70.03409       29.74399       40.65263
O         72.23704       33.18064       40.68880
H         72.22979       33.73258       39.86714
H         73.13962       33.31688       41.07117
O         72.07423       30.84357       43.07339
H         72.12646       30.27227       42.26669
H         72.30930       30.23912       43.82151

Ca 1.0



