%chk=apoCaM-CA-Ng.loop3.water6.frame1134.chk
%nprocshared=20
%mem=10GB
%nosave
#b3lyp/svp scf=(tight,noincore,xqc) Test 
#IOP(5/87=12) Density=Current Pop=(MK,readradii) iop(6/33=2) iop(6/42=6)

apoCaM-CA-Ng.loop3.water6.frame1134 

   0  1 
C         73.33542       73.35057       56.18395
C         71.84215       73.20507       56.25884
O         71.17559       73.46543       55.26877
H         73.73514       72.67688       55.39683
H         73.59848       74.39947       55.93407
H         73.81839       73.08677       57.14904
N         71.24803       72.78389       57.40993
C         69.80810       72.59776       57.56176
C         69.23498       73.48600       58.65608
O         68.07862       73.30011       59.00791
C         69.48867       71.11237       57.83167
C         69.98546       70.58983       59.14953
O         71.18085       70.52800       59.38263
O         69.10437       70.14793       60.06770
H         71.84966       72.57992       58.22142
H         69.27482       72.85452       56.61922
H         69.91911       70.49204       57.01898
H         68.38247       70.99170       57.80619
N         69.96697       74.49181       59.22185
C         69.47206       75.37469       60.27150
C         68.20093       76.06163       59.79355
O         67.16336       75.93065       60.43027
C         69.26056       74.60329       61.60123
C         70.43552       73.67146       61.94499
C         70.26491       73.06351       63.34654
C         71.29318       71.96129       63.65920
N         71.01726       70.72848       62.91644
H         70.92209       74.67936       58.88503
H         70.25410       76.14447       60.46072
H         68.35389       73.96208       61.54068
H         69.10211       75.35142       62.40953
H         71.40135       74.22079       61.90815
H         70.45590       72.87184       61.17784
H         69.24630       72.63816       63.47767
H         70.39058       73.89000       64.07967
H         71.22849       71.72605       64.74390
H         72.32490       72.31985       63.44701
H         70.05643       70.38092       63.14380
H         71.10018       70.88243       61.89060
H         71.70864       69.99535       63.19379
N         68.20222       76.74518       58.61335
C         66.98228       77.23616       57.98318
C         66.77945       76.51057       56.66078
O         66.71605       77.13772       55.61287
C         66.96279       78.77998       57.88825
C         68.03709       79.43710       57.06573
O         68.98896       78.72833       56.43535
O         68.03617       80.65299       56.95782
H         69.09318       76.84832       58.10499
H         66.09357       76.98318       58.60204
H         67.02512       79.19003       58.91943
H         65.98074       79.08313       57.46216
N         66.61861       75.15584       56.65797
C         66.33665       74.40661       55.44255
C         65.92000       72.97610       55.75770
O         65.04488       72.83464       56.60027
H         66.63236       74.66220       57.56083
H         67.18161       74.50413       54.73883
H         65.44947       74.87264       54.96345
N         66.36840       71.85450       55.11063
C         67.34465       71.77910       54.02607
C         68.42299       70.74920       54.35044
O         68.22676       69.94665       55.25206
C         66.61943       71.36635       52.71928
C         65.87927       72.51913       52.08704
N         64.79038       73.06885       52.66817
O         66.27350       72.96006       51.01693
H         65.92322       70.96183       55.38095
H         67.86068       72.74058       53.87871
H         65.94551       70.49929       52.89111
H         67.34222       71.01292       51.96865
H         64.41397       72.69897       53.55012
H         64.30732       73.85974       52.21715
N         69.60561       70.68489       53.66712
C         69.98913       71.62340       52.61998
C         71.33754       71.28960       52.05727
O         71.50623       70.19071       51.54960
H         70.27775       69.94897       53.93935
H         69.98773       72.65443       53.02753
H         69.29876       71.58490       51.76466
N         72.35009       72.20118       52.10745
C         73.66886       71.91608       51.55267
C         74.68398       72.97988       51.95269
O         74.31631       74.06558       52.37621
C         73.57040       71.81713       50.00174
C         74.82570       71.32618       49.32577
C         75.50009       72.12704       48.38792
C         75.31720       70.04208       49.61109
C         76.65191       71.65040       47.75286
C         76.46879       69.56923       48.97823
C         77.14086       70.37232       48.04598
O         78.25392       69.92746       47.42932
H         72.17024       73.09774       52.58020
H         74.00205       70.95766       52.00644
H         73.27619       72.81594       49.60738
H         72.77071       71.11064       49.70305
H         75.13554       73.11730       48.14428
H         74.80628       69.40641       50.32298
H         77.16487       72.27477       47.03210
H         76.83534       68.57813       49.21258
H         78.62477       69.05160       47.60905
N         76.01398       72.69989       51.85185
C         77.06527       73.66692       52.16990
C         76.95971       74.88177       51.24944
O         76.21651       74.82973       50.27638
C         78.46647       72.95267       52.11067
C         78.79775       72.41596       50.68719
C         79.61108       73.83093       52.64585
C         80.07235       71.57236       50.62423
H         76.26937       71.74602       51.57169
H         76.88930       74.00571       53.21518
H         78.39184       72.08598       52.80579
H         78.88209       73.25801       49.96761
H         77.98709       71.75599       50.33363
H         79.34607       74.24850       53.64005
H         80.53380       73.23322       52.78470
H         79.86075       74.64569       51.93745
H         80.19600       71.17032       49.59634
H         80.97099       72.17739       50.85741
H         80.00368       70.71783       51.33093
N         77.67552       76.01742       51.48719
C         77.64066       77.14514       50.56757
C         76.37078       77.96211       50.71839
O         75.69516       77.86837       51.73353
C         78.87937       78.03810       50.74559
O         78.91130       78.58254       52.03545
H         78.28989       76.06716       52.31067
H         77.69677       76.73950       49.53216
H         78.85938       78.85738       49.99296
H         79.78736       77.41430       50.58132
H         79.74645       79.11615       52.08869
N         76.01376       78.81144       49.71526
C         74.88603       79.73436       49.73380
C         75.11033       80.83243       50.75621
O         74.21200       81.15105       51.52238
C         73.54311       79.00206       49.90125
H         76.59982       78.82319       48.86620
H         74.86868       80.24067       48.74352
H         73.42976       78.22808       49.11391
H         73.46523       78.51268       50.89465
H         72.70243       79.72086       49.80700
N         76.32658       81.45171       50.81569
C         76.66864       82.53874       51.72417
C         76.29595       82.19961       53.15605
O         75.58991       82.96853       53.79527
C         76.02560       83.84562       51.24169
H         77.07917       81.11264       50.19710
H         77.77071       82.68717       51.67829
H         76.34422       84.69066       51.88911
H         76.35515       84.06256       50.20310
H         74.91772       83.77432       51.25679
N         76.71663       81.02859       53.70894
C         76.34040       80.59537       55.04804
C         77.59094       80.42174       55.88394
O         77.71023       81.07705       56.90979
C         75.51418       79.29237       54.94611
C         74.93706       78.77358       56.27821
C         73.87756       79.66927       56.87255
O         72.73699       79.25475       57.00367
O         74.17770       80.90861       57.30372
H         77.29924       80.40002       53.13644
H         75.70358       81.36490       55.52499
H         76.15603       78.49663       54.51056
H         74.66511       79.44818       54.24462
H         75.74768       78.61120       57.01877
H         74.46828       77.78661       56.06728
N         78.58075       79.57247       55.48496
C         79.82213       79.39012       56.20811
H         80.66972       79.68970       55.55578
H         79.86574       79.99582       57.13717
H         79.93771       78.31982       56.47662
H         78.46713       79.03665       54.61325
Ca        70.45678       79.89475       55.18932
O         70.55583       80.09736       52.08067
H         71.37338       80.51205       51.70898
H         69.88693       80.17801       51.35577
O         71.20807       82.52007       56.68488
H         72.08420       82.85397       56.36680
H         70.58031       83.26525       56.50963
O         68.98110       82.31008       53.91511
H         68.30186       82.38036       53.19822
H         68.97116       83.19648       54.35597
O         71.72331       77.55062       54.12172
H         72.31932       77.45917       53.33692
H         71.12388       76.76382       54.07890
O         72.52475       81.46400       53.95578
H         73.46839       81.63348       54.19268
H         72.17222       82.34704       53.68111
O         67.92099       79.09526       53.30653
H         68.01325       78.75015       52.38352
H         68.26959       78.36367       53.87389

Ca 1.0



