%chk=apoCaM-CA-Ng.loop1.water3.frame1218.chk
%nprocshared=20
%mem=10GB
%nosave
#b3lyp/svp scf=(tight,noincore,xqc) Test 
#IOP(5/87=12) Density=Current Pop=(MK,readradii) iop(6/33=2) iop(6/42=6)

apoCaM-CA-Ng.loop1.water3.frame1218 

   0  1 
C         46.78721        8.21749       95.12980
C         46.34362        6.81302       95.39868
O         45.90259        6.14445       94.47369
H         47.86501        8.31843       95.37005
H         46.62827        8.48030       94.06150
H         46.19913        8.91971       95.75787
N         46.40093        6.30869       96.66556
C         45.93093        4.97012       97.00342
C         44.64485        5.06762       97.79493
O         44.51180        4.48543       98.86255
C         47.03912        4.12816       97.67648
C         47.54834        4.63980       99.00326
O         47.09820        5.65108       99.51834
O         48.51596        3.95367       99.63962
H         46.73895        6.92391       97.41979
H         45.65301        4.42594       96.07661
H         47.89869        4.06391       96.97562
H         46.65099        3.09792       97.83422
N         43.61889        5.78396       97.26176
C         42.28446        5.83929       97.83706
C         41.69347        4.43585       97.87287
O         41.28833        4.02433       98.95173
C         41.35427        6.82381       97.07248
C         41.92462        8.25274       96.91639
C         42.19666        8.97235       98.24814
C         42.92168       10.31781       98.05933
N         42.16048       11.27094       97.25127
H         43.79638        6.27758       96.37744
H         42.35602        6.21855       98.87897
H         40.37805        6.87801       97.60321
H         41.14382        6.45031       96.05184
H         41.18991        8.84403       96.33006
H         42.86167        8.21976       96.32595
H         42.86910        8.35731       98.87930
H         41.23929        9.11987       98.79360
H         43.91285       10.14026       97.58419
H         43.10241       10.75772       99.06515
H         42.06597       10.92877       96.26870
H         41.21716       11.43116       97.67194
H         42.68038       12.17791       97.22521
N         41.64748        3.58825       96.79581
C         42.14176        3.86753       95.44198
C         43.34970        2.99190       95.11715
O         43.74946        2.16973       95.92820
C         40.99727        3.70887       94.42316
C         40.47860        2.31087       94.43104
O         41.28626        1.29224       94.09291
O         39.34612        2.08044       94.82278
H         41.26473        2.64431       96.96418
H         42.48570        4.90088       95.34021
H         41.33126        3.96901       93.39765
H         40.18107        4.41162       94.70261
N         44.01325        3.17065       93.93972
C         45.22536        2.45735       93.56794
C         45.02598        0.98787       93.26395
O         43.92631        0.46825       93.40473
H         43.68242        3.90379       93.29603
H         45.99827        2.58373       94.35682
H         45.61439        2.92003       92.63517
N         46.07753        0.27412       92.76704
C         46.00922       -1.12541       92.33022
C         47.12638       -1.44757       91.31688
O         48.06876       -0.67073       91.20934
C         46.14111       -2.06642       93.55623
C         44.96225       -2.00845       94.47845
O         43.85645       -2.34068       94.08087
O         45.12472       -1.62400       95.75766
H         46.94984        0.80481       92.61404
H         45.04859       -1.26841       91.79635
H         47.07005       -1.80171       94.10744
H         46.24615       -3.12248       93.26185
N         47.13004       -2.55740       90.51323
C         46.05895       -3.54111       90.41970
C         44.80247       -2.96237       89.81982
O         44.81709       -1.85121       89.31649
H         47.94647       -2.71048       89.90138
H         45.84637       -3.97465       91.40812
H         46.37347       -4.38458       89.76827
N         43.65021       -3.68539       89.87321
C         42.36837       -3.20203       89.36995
C         42.00729       -1.86204       90.00075
O         42.09620       -1.72496       91.21141
C         41.26685       -4.26276       89.62448
C         39.91007       -3.84687       89.04677
O         41.12526       -4.50805       91.00206
H         43.68923       -4.61227       90.32321
H         42.44408       -3.07575       88.26711
H         41.56304       -5.19823       89.08949
H         41.50242       -5.40738       91.18857
H         39.99282       -3.66657       87.95417
H         39.16905       -4.65650       89.21628
H         39.53271       -2.92219       89.53091
N         41.56300       -0.84422       89.20352
C         41.15395        0.49466       89.62959
C         40.04401        0.42713       90.66412
O         40.30410        0.04589       91.79428
C         42.34552        1.36392       90.13122
C         43.47952        1.38512       89.07562
C         41.85638        2.79858       90.43496
C         44.73461        2.13100       89.53149
H         41.46984       -1.03842       88.19458
H         40.75552        0.99985       88.71980
H         42.74465        0.91597       91.06600
H         43.11319        1.82900       88.12480
H         43.79022        0.34505       88.86490
H         41.47242        3.28008       89.50901
H         41.04231        2.79489       91.18820
H         42.66636        3.42576       90.85537
H         44.53682        3.21132       89.67918
H         45.12039        1.69117       90.47312
H         45.52078        2.03751       88.75354
N         38.77672        0.80459       90.34701
C         37.68516        0.79860       91.31406
C         36.65645       -0.27568       91.00954
O         35.71262       -0.37979       91.78066
C         37.05662        2.21000       91.44657
C         36.51170        2.77978       90.13393
O         38.01466        3.10343       91.95329
H         38.57478        1.08577       89.37653
H         38.06149        0.53361       92.32556
H         36.19226        2.14892       92.15242
H         37.90998        3.11229       92.94045
H         36.03686        3.76483       90.33047
H         37.32918        2.94734       89.40240
H         35.75316        2.10154       89.69221
N         36.77451       -1.14522       89.95786
C         35.81980       -2.23224       89.75722
C         35.92710       -3.19776       90.93275
O         36.89712       -3.93789       90.99428
C         36.08531       -2.95630       88.40937
C         35.08418       -4.08559       88.14135
O         36.01136       -2.02146       87.36310
H         37.55788       -1.04717       89.29601
H         34.80180       -1.78393       89.71177
H         37.11147       -3.39114       88.44744
H         36.56980       -2.37261       86.62001
H         35.13496       -4.85896       88.93598
H         34.05110       -3.68263       88.08898
H         35.32622       -4.57511       87.17345
N         34.98777       -3.18879       91.92752
C         35.00145       -4.02597       93.13086
C         36.25201       -3.83803       93.97305
O         37.35016       -4.06328       93.48869
C         34.78987       -5.51027       92.81351
C         33.44967       -5.72935       92.10234
C         33.10466       -7.21673       92.03968
C         31.75978       -7.43231       91.33838
N         31.38090       -8.84332       91.36811
H         34.20642       -2.52076       91.84465
H         34.13123       -3.72314       93.75659
H         34.76497       -6.04810       93.78842
H         35.62219       -5.92727       92.20670
H         33.49420       -5.29141       91.08098
H         32.64206       -5.21876       92.67347
H         33.03576       -7.60614       93.08011
H         33.90242       -7.77223       91.50082
H         31.83511       -7.08569       90.28363
H         30.96991       -6.83631       91.84873
H         32.11327       -9.42446       90.89994
H         31.26116       -9.15720       92.35915
H         30.47283       -8.96390       90.86476
N         36.15758       -3.46936       95.28175
C         37.33928       -3.21712       96.09424
C         38.09925       -2.00973       95.51874
O         39.14778       -1.61254       96.34619
C         36.99774       -3.05325       97.59697
C         36.54646       -4.38123       98.21519
C         36.26465       -4.21521       99.68060
O         35.15643       -4.46698      100.12465
O         37.23667       -3.79617      100.51459
H         35.22536       -3.35138       95.70633
H         38.03612       -4.08341       96.03619
H         36.22198       -2.28377       97.76427
H         37.91425       -2.74061       98.14411
H         37.35571       -5.13564       98.09893
H         35.63904       -4.75368       97.69435
N         37.29448       -0.87057       95.03598
C         36.46260       -0.22022       96.04501
H         35.57765       -0.84852       96.26527
H         37.04292        0.00686       96.96437
H         36.06455        0.73114       95.63141
H         37.95112       -0.16038       94.64189
Ca        40.56619       -0.63425       94.90814
O         42.31546       -0.74397       97.37615
H         42.57208       -0.07435       96.69408
H         43.12636       -1.29856       97.49450
O         39.50824       -2.42498       92.85105
H         40.01160       -3.14855       93.30145
H         39.53859       -2.65436       91.89074
O         41.62988       -3.59374       95.82452
H         40.88965       -4.23508       95.67967
H         42.44932       -4.14899       95.79824

Ca 1.0



