%chk=apoCaM-CA-Ng.loop2.water4.frame1324.chk
%nprocshared=20
%mem=10GB
%nosave
#b3lyp/svp scf=(tight,noincore,xqc) Test 
#IOP(5/87=12) Density=Current Pop=(MK,readradii) iop(6/33=2) iop(6/42=6)

apoCaM-CA-Ng.loop2.water4.frame1324 

   -2  1 
C         59.36085       40.79909      114.61069
C         59.12261       42.28565      114.45660
O         60.00737       42.92395      113.90541
H         60.31130       40.65117      115.16642
H         58.59582       40.23093      115.16147
H         59.46882       40.33566      113.60773
N         58.01551       42.96097      114.89974
C         56.82657       42.37530      115.52050
C         56.68231       42.76342      116.99081
O         55.87997       42.12902      117.66191
C         55.57008       42.75769      114.70171
C         55.38696       44.24899      114.66424
O         55.17658       44.85978      115.70011
O         55.54726       44.93968      113.51702
H         58.01754       43.98412      114.76328
H         56.88422       41.27670      115.50685
H         54.65993       42.28332      115.12940
H         55.70072       42.38382      113.66374
N         57.41966       43.76203      117.57039
C         57.39223       44.04274      119.00500
C         56.93014       45.45652      119.36967
O         56.91687       45.74718      120.55826
C         58.81131       43.81881      119.54327
H         58.06916       44.31720      116.99521
H         56.71576       43.33462      119.53040
H         59.14608       42.78424      119.31470
H         59.52069       44.53118      119.06657
H         58.84785       43.96118      120.64367
N         56.56677       46.39287      118.44077
C         56.26529       47.79180      118.78989
C         54.88182       48.24960      118.34261
O         54.17416       47.51771      117.66331
C         57.34417       48.70744      118.14138
C         57.31876       48.67940      116.62422
O         56.32847       48.01391      115.99996
O         58.18917       49.23735      115.97703
H         56.57534       46.12397      117.45008
H         56.31467       47.92894      119.89178
H         58.33687       48.35097      118.49115
H         57.22580       49.75890      118.47960
N         54.46877       49.51070      118.66393
C         53.27949       50.14774      118.12227
C         53.47767       50.53622      116.66769
O         54.50958       50.22846      116.08890
H         55.04973       50.07482      119.30189
H         53.10802       51.09549      118.67660
H         52.38619       49.50020      118.26242
N         52.51452       51.24172      116.01093
C         52.62813       51.61425      114.59762
C         53.77832       52.60541      114.35310
O         54.29684       53.16491      115.30991
C         51.26477       52.18809      114.13216
C         51.13129       52.35492      112.64113
N         50.82925       53.55771      112.09928
O         51.26372       51.38143      111.91460
H         51.65183       51.47429      116.52898
H         52.82597       50.67714      114.03965
H         51.07151       53.14925      114.65945
H         50.46496       51.47608      114.43331
H         50.69268       54.38869      112.69274
H         50.71573       53.65518      111.07924
N         54.22118       52.87741      113.08524
C         55.24374       53.88038      112.77716
C         56.62476       53.55425      113.32959
O         56.79211       52.49153      113.90740
H         53.78732       52.38446      112.29163
H         54.89067       54.85189      113.17627
H         55.34623       53.96976      111.67367
N         57.68779       54.41543      113.22914
C         57.60933       55.78024      112.70177
C         57.69813       55.88033      111.18020
O         57.46344       56.97643      110.68937
C         58.73040       56.67660      113.29891
C         58.64119       56.79629      114.82442
O         59.98986       56.17039      112.93305
H         58.56472       54.12278      113.68913
H         56.64593       56.22623      113.02861
H         58.60251       57.70411      112.88082
H         60.63565       56.92163      113.00104
H         58.78172       55.81271      115.31735
H         59.43399       57.48497      115.18821
H         57.65580       57.21487      115.11916
N         58.06692       54.83949      110.37009
C         58.20723       54.98652      108.91465
C         57.18042       54.07841      108.24083
O         57.21819       52.88872      108.52251
C         59.64284       54.61929      108.42606
C         60.78288       55.34313      109.19249
C         59.77172       54.86556      106.90543
C         60.82018       56.86732      109.05290
H         58.26658       53.91914      110.78915
H         58.05231       56.03986      108.64453
H         59.80216       53.53353      108.60929
H         61.75592       54.94804      108.82381
H         60.71511       55.08934      110.27147
H         59.03035       54.26490      106.33895
H         59.59339       55.93323      106.65576
H         60.78229       54.57928      106.54616
H         60.96543       57.17180      107.99626
H         59.89487       57.32792      109.45039
H         61.68199       57.26103      109.63362
N         56.20851       54.50403      107.37466
C         56.00799       55.86791      106.88749
C         55.72549       55.90620      105.38641
O         55.55014       54.86664      104.76456
C         54.85014       56.51143      107.68431
C         53.57636       55.70551      107.63035
O         53.05716       55.19627      108.76466
O         53.00991       55.50651      106.56764
H         55.51969       53.79636      107.07243
H         56.90900       56.48695      107.02832
H         54.64774       57.54120      107.32131
H         55.16603       56.58809      108.74773
N         55.63634       57.11349      104.75537
C         55.17938       57.30567      103.38196
C         56.23862       58.00289      102.52899
O         56.72860       59.03677      102.96721
C         53.94369       58.23196      103.42936
C         53.36817       58.46231      102.05405
C         52.54259       57.49387      101.46205
C         53.67163       59.63750      101.34393
C         52.02334       57.70139      100.18059
C         53.16314       59.83375      100.05747
C         52.33675       58.86813       99.47734
H         55.84324       57.96294      105.30472
H         54.86493       56.34443      102.93140
H         54.25660       59.20580      103.86998
H         53.15306       57.82686      104.09769
H         52.29850       56.58390      101.99589
H         54.31862       60.39083      101.77663
H         51.38110       56.95567       99.73115
H         53.41270       60.73323       99.50952
H         51.94088       59.02350       98.48236
N         56.56199       57.60054      101.25598
C         56.03004       56.43918      100.55099
C         56.49966       55.15411      101.18205
O         55.69083       54.28837      101.48455
C         56.59544       56.57423       99.12608
C         56.74482       58.07591       98.99359
C         57.34220       58.42187      100.35233
H         54.92327       56.51452      100.50125
H         57.62821       56.16160       99.06925
H         55.98503       56.07539       98.34258
H         57.35067       58.40783       98.12401
H         55.72847       58.52712       98.92465
H         58.40566       58.09587      100.39637
H         57.26532       59.51253      100.55064
N         57.82540       55.00216      101.45008
C         58.38903       53.83986      102.10877
C         58.36251       52.65411      101.14632
O         59.08368       52.71945      100.16003
C         59.83472       54.18774      102.53482
C         60.53255       53.10498      103.36432
C         61.91929       53.52698      103.78838
O         62.38076       54.61302      103.46810
O         62.66314       52.69319      104.53785
H         58.45522       55.78780      101.22419
H         57.82665       53.67788      103.04506
H         59.78849       55.11137      103.15641
H         60.44431       54.41353      101.63051
H         60.61240       52.17073      102.77045
H         59.93242       52.90360      104.27696
N         57.58415       51.54049      101.29574
C         56.59009       51.30525      102.32413
H         55.60634       51.14354      101.83310
H         56.85459       50.39111      102.89303
H         56.45988       52.13601      103.03375
H         57.67681       50.79549      100.58706
Ca        56.03169       47.08286      113.98511
O         52.62108       45.82589      113.11580
H         52.43878       46.01551      112.16134
H         52.43993       44.85788      113.21711
O         53.53131       48.77261      112.39186
H         53.86860       49.56372      111.90160
H         52.54629       48.87162      112.37088
O         56.72802       49.79109      113.14269
H         56.28924       50.14190      112.32806
H         56.07048       49.95269      113.86538
O         51.91966       47.89371      115.24765
H         51.28905       48.29089      114.59567
H         51.47212       47.06453      115.55211

Ca 1.0



