%chk=apoCaM-CA-Ng.loop1.water3.frame1390.chk
%nprocshared=20
%mem=10GB
%nosave
#b3lyp/svp scf=(tight,noincore,xqc) Test 
#IOP(5/87=12) Density=Current Pop=(MK,readradii) iop(6/33=2) iop(6/42=6)

apoCaM-CA-Ng.loop1.water3.frame1390 

   0  1 
C         22.05644       90.77172       60.06787
C         20.92746       90.28405       59.20756
O         20.73569       89.07920       59.12361
H         23.01639       90.36894       59.67912
H         22.11789       91.88012       60.06935
H         21.91087       90.42071       61.11019
N         20.16014       91.16645       58.50387
C         19.09644       90.75340       57.59302
C         19.55320       91.00137       56.16993
O         18.91256       91.70996       55.40587
C         17.74886       91.41351       57.96392
C         17.70025       92.92162       57.87947
O         16.66338       93.49829       58.16423
O         18.76472       93.64744       57.48491
H         20.38676       92.16866       58.57174
H         18.93458       89.65676       57.66908
H         17.49367       91.11446       59.00365
H         16.96351       91.00660       57.28974
N         20.70421       90.40551       55.76332
C         21.28855       90.54954       54.43837
C         20.35077       90.04052       53.34689
O         20.12737       90.79727       52.41273
C         22.69808       89.90806       54.38014
C         23.63509       90.61908       55.38421
C         25.09004       90.15223       55.30927
C         25.93283       90.93639       56.33158
N         27.34349       90.56308       56.26354
H         21.19495       89.81416       56.45011
H         21.45891       91.63340       54.24431
H         23.10673       90.05333       53.35615
H         22.66413       88.81768       54.58882
H         23.27759       90.46123       56.42315
H         23.61640       91.71103       55.17284
H         25.48147       90.33861       54.28573
H         25.15202       89.06406       55.52862
H         25.54981       90.73949       57.35862
H         25.83987       92.02782       56.13154
H         27.87481       91.11806       56.97351
H         27.45797       89.54523       56.47237
H         27.72441       90.77911       55.31389
N         19.68316       88.84703       53.37744
C         19.72843       87.86639       54.45514
C         18.44506       87.94476       55.28400
O         17.55003       88.70109       54.92937
C         19.93761       86.45342       53.87507
C         18.78877       86.00724       53.00907
O         17.54730       86.07938       53.51796
O         18.98244       85.53056       51.90558
H         19.01271       88.66908       52.61201
H         20.57081       88.06408       55.13622
H         20.00107       85.74592       54.72625
H         20.89594       86.38784       53.31529
N         18.28915       87.19507       56.41476
C         17.07875       87.25146       57.22634
C         16.00751       86.30549       56.72634
O         16.26095       85.53557       55.81765
H         19.07327       86.61272       56.74527
H         16.70362       88.29639       57.27299
H         17.31973       86.94165       58.26554
N         14.77613       86.29536       57.31031
C         13.70567       85.35601       56.95527
C         13.30150       84.56323       58.19555
O         13.75479       84.91931       59.27551
C         12.51072       86.15486       56.39426
C         12.87241       86.86732       55.12280
O         13.20524       86.22983       54.13665
O         12.80867       88.21063       55.05766
H         14.58868       86.98515       58.05515
H         14.05925       84.63540       56.19403
H         12.17686       86.89463       57.15466
H         11.65199       85.50232       56.16494
N         12.47344       83.47441       58.18880
C         11.88602       82.79393       57.04181
C         12.91556       82.09275       56.18665
O         13.81582       81.47404       56.73606
H         12.25372       83.05699       59.10777
H         11.20673       83.43853       56.45563
H         11.24450       81.98001       57.44566
N         12.77291       82.04252       54.82873
C         13.66791       81.25961       53.96799
C         15.01589       81.99837       53.69145
O         15.07592       83.14732       54.47229
C         12.93500       80.86992       52.66383
C         13.77693       79.97590       51.74651
O         12.53950       82.02502       51.97407
H         11.93837       82.48589       54.41484
H         13.86975       80.29381       54.48759
H         12.03045       80.29154       52.97245
H         11.73997       81.78187       51.43745
H         14.67955       80.51315       51.38743
H         14.08669       79.05474       52.28491
H         13.17749       79.67747       50.86093
N         16.15016       81.08787       53.96941
C         17.55165       81.57887       53.92704
C         17.95274       82.15981       52.57927
O         17.39417       83.16190       52.17368
C         17.90273       82.59154       55.06254
C         17.40571       82.15791       56.46410
C         19.41890       82.87774       55.09262
C         17.96240       80.82731       56.96998
H         16.08152       80.27241       53.31845
H         18.18669       80.68528       54.11611
H         17.41387       83.55740       54.84220
H         16.30154       82.08364       56.45322
H         17.66843       82.95379       57.19574
H         19.65642       83.61605       55.88705
H         20.00186       81.95205       55.27699
H         19.76097       83.30451       54.12783
H         17.54461       80.62259       57.97809
H         17.66528       79.99600       56.29875
H         19.06674       80.86103       57.05759
N         18.97013       81.61646       51.85568
C         19.51738       82.25965       50.66169
C         19.11124       81.55780       49.38540
O         19.50423       82.02902       48.33054
C         21.05608       82.42778       50.77981
C         21.82237       81.10202       50.85983
O         21.36459       83.19479       51.91621
H         19.38571       80.73084       52.17801
H         19.09934       83.28342       50.55001
H         21.42634       82.94648       49.86194
H         21.46981       84.13657       51.61937
H         21.56202       80.53531       51.77644
H         21.61333       80.47271       49.96959
H         22.91351       81.30793       50.89223
N         18.30151       80.45971       49.39042
C         17.81776       79.82442       48.16885
C         16.86272       80.77435       47.44309
O         15.67591       80.75779       47.73518
C         17.13985       78.46385       48.50221
C         18.14548       77.48092       49.12599
O         16.06770       78.66179       49.39107
H         18.00489       80.06663       50.29328
H         18.68305       79.59744       47.50662
H         16.76349       78.02620       47.54901
H         15.53726       77.82284       49.40036
H         18.99397       77.30444       48.43242
H         18.54743       77.86365       50.08791
H         17.64942       76.50866       49.32919
N         17.33382       81.66978       46.51814
C         16.52606       82.68332       45.83244
C         15.96371       83.70724       46.80816
O         15.39683       83.32860       47.82018
C         15.44466       82.06483       44.93057
C         16.08714       81.10023       43.91995
C         15.10094       80.65695       42.83834
C         15.77182       79.65904       41.88343
N         14.87657       79.29674       40.78666
H         18.33471       81.64463       46.27743
H         17.19804       83.23935       45.13936
H         14.95707       82.89962       44.37878
H         14.66398       81.53580       45.51676
H         16.47876       80.21343       44.46518
H         16.93780       81.60765       43.41201
H         14.77543       81.55419       42.26642
H         14.20943       80.18281       43.30235
H         16.05412       78.74386       42.45086
H         16.69880       80.10582       41.45856
H         15.35112       78.59064       40.17869
H         13.99142       78.88536       41.16129
H         14.65922       80.14363       40.21224
N         16.08896       85.04469       46.56801
C         15.71671       86.04674       47.56032
C         16.66872       85.95989       48.74980
O         16.17683       85.75945       49.85075
C         15.66676       87.47507       46.97171
C         14.49983       87.64919       45.98912
C         14.46358       89.05160       45.45048
O         14.31925       90.09661       46.28874
O         14.55807       89.25091       44.25011
H         16.48509       85.35748       45.66844
H         14.68234       85.84400       47.92560
H         16.60511       87.73694       46.45493
H         15.51099       88.19350       47.80788
H         13.53876       87.44991       46.51222
H         14.60031       86.92830       45.14961
N         18.03017       86.05992       48.65950
C         18.79141       86.25102       47.44264
H         19.87618       86.24357       47.67976
H         18.60507       85.42721       46.72603
H         18.57849       87.23318       46.98779
H         18.57786       85.96612       49.52513
Ca        15.70905       84.87070       53.13425
O         14.26082       83.49954       50.39273
H         13.75637       82.86438       49.82417
H         15.09820       83.02167       50.61580
O         13.23696       86.27512       50.90975
H         13.02968       87.23296       50.77111
H         12.59750       85.79674       50.32463
O         15.27180       88.18404       52.59873
H         14.33035       88.48631       52.55204
H         15.40575       87.94844       53.55058

Ca 1.0



