%chk=apoCaM-CA-Ng.loop4.water5.frame9.chk
%nprocshared=20
%mem=10GB
%nosave
#b3lyp/svp scf=(tight,noincore,xqc) Test 
#IOP(5/87=12) Density=Current Pop=(MK,readradii) iop(6/33=2) iop(6/42=6)

apoCaM-CA-Ng.loop4.water5.frame9 

   -3  1 
C         77.72131       25.61700       78.49381
C         78.92530       24.96678       79.10113
O         79.97481       25.58924       79.12928
H         76.92316       25.70589       79.25960
H         77.97257       26.63367       78.12044
H         77.35487       25.00395       77.64470
N         78.83010       23.71342       79.63498
C         79.92693       22.98501       80.26903
C         80.50086       23.78102       81.43147
O         81.67641       24.08519       81.43427
C         80.95822       22.45135       79.23052
C         81.65341       23.49719       78.40617
O         82.43169       24.41736       79.00045
O         81.49514       23.52920       77.19673
H         77.90679       23.25345       79.62369
H         79.50328       22.05899       80.71955
H         80.41183       21.76959       78.54110
H         81.72737       21.84381       79.75515
N         79.68687       24.13385       82.46716
C         80.06200       24.85499       83.68879
C         81.00570       24.02373       84.55855
O         80.53958       23.50390       85.56343
C         80.56623       26.30272       83.42881
C         80.78286       27.09351       84.74922
C         79.61489       27.07015       82.49402
C         79.52476       27.31468       85.60232
H         78.69578       23.85430       82.39432
H         79.10954       24.94503       84.25537
H         81.54815       26.25456       82.91054
H         81.19512       28.08953       84.49259
H         81.53900       26.57277       85.37442
H         79.55199       26.57048       81.50823
H         78.58869       27.13247       82.90871
H         80.00045       28.09625       82.32355
H         79.09893       26.35568       85.95853
H         79.78996       27.91540       86.49704
H         78.74642       27.87213       85.04408
N         82.31789       23.80986       84.23256
C         83.14529       22.84904       84.95059
C         83.44488       23.29171       86.37752
O         82.96262       22.61297       87.27331
C         84.42294       22.46295       84.15973
C         84.12507       21.81241       82.82979
O         82.85916       21.59865       82.41919
O         85.04917       21.46020       82.11495
H         82.72496       24.26984       83.41307
H         82.56127       21.90091       85.01571
H         85.00998       21.73606       84.76134
H         85.06613       23.33710       83.96100
N         84.24362       24.34204       86.73651
C         84.95611       25.26146       85.86329
C         86.44781       24.97783       85.93330
O         86.82404       23.98946       86.54975
H         84.41220       24.47487       87.74686
H         84.75892       26.28564       86.23649
H         84.59816       25.22093       84.82004
N         87.39624       25.77809       85.36469
C         87.13706       27.02795       84.65116
C         86.36201       26.80257       83.35856
O         86.46660       25.71549       82.80873
C         88.48192       27.74387       84.33030
C         89.35896       27.00433       83.34117
O         89.83691       25.77599       83.61819
O         89.65929       27.53271       82.28237
H         88.37601       25.49529       85.51752
H         86.56062       27.68065       85.33788
H         89.05285       27.89193       85.27226
H         88.27988       28.74982       83.91498
N         85.63523       27.78346       82.73816
C         85.36484       29.10792       83.27692
C         84.35825       29.07318       84.40235
O         83.83915       28.01590       84.72439
H         85.23961       27.57933       81.81066
H         84.91830       29.74140       82.48054
H         86.30315       29.59639       83.59762
N         84.04358       30.22633       85.05501
C         83.11764       30.29922       86.17987
C         82.06714       31.35747       85.87273
O         81.99112       32.35592       86.57886
C         83.91950       30.66562       87.45120
C         85.06149       29.67381       87.74043
C         85.89341       30.07104       88.93661
N         86.97837       29.33648       89.27166
O         85.60869       31.05992       89.59768
H         84.52461       31.09507       84.77288
H         82.61416       29.32322       86.35886
H         83.22915       30.70012       88.32351
H         84.37026       31.67389       87.31093
H         85.74635       29.64419       86.86675
H         84.64626       28.65559       87.90205
H         87.24247       28.50775       88.71877
H         87.56347       29.60433       90.07696
N         81.25251       31.23814       84.78396
C         80.40387       32.34386       84.33965
C         81.33977       33.47072       83.94969
O         82.23732       33.22632       83.16096
C         79.50511       31.95417       83.13675
C         78.66823       33.15866       82.65955
C         78.54676       30.80944       83.50112
H         81.30881       30.38271       84.21312
H         79.72530       32.65336       85.16724
H         80.15615       31.62582       82.30376
H         78.00887       33.52651       83.47586
H         79.31967       33.99486       82.32946
H         78.03364       32.87239       81.79421
H         77.92170       30.53998       82.62259
H         79.10465       29.90413       83.80530
H         77.87510       31.10971       84.33440
N         81.20275       34.70828       84.49725
C         82.14014       35.81710       84.34945
C         82.40312       36.25411       82.90615
O         81.88817       37.29426       82.51951
C         83.44418       35.51710       85.12625
C         84.41905       36.66914       85.09877
N         84.09205       37.87060       85.62932
O         85.52228       36.51026       84.59792
H         80.39249       34.87184       85.11512
H         81.66318       36.68278       84.86322
H         83.93286       34.61106       84.70958
H         83.19472       35.29250       86.18599
H         83.17270       38.02405       86.06758
H         84.76518       38.65092       85.60827
N         83.31628       35.60882       82.11605
C         83.80241       36.13429       80.84801
C         83.69115       35.12783       79.71231
O         84.26845       34.05165       79.78584
C         85.28076       36.53772       81.04161
C         85.96733       36.91980       79.74914
C         87.08704       36.18664       79.31946
C         85.49785       37.98102       78.95713
C         87.72411       36.50414       78.11961
C         86.13649       38.29538       77.75203
C         87.24953       37.55890       77.32924
O         87.85226       37.86948       76.16426
H         83.80373       34.77804       82.47373
H         83.24784       37.05420       80.56294
H         85.82266       35.67911       81.49733
H         85.33511       37.38281       81.76172
H         87.46702       35.36280       79.91112
H         84.63450       38.55698       79.26458
H         88.58363       35.92578       77.80508
H         85.76290       39.10881       77.14339
H         88.62166       37.38010       75.83893
N         83.04620       35.49903       78.56948
C         83.07772       34.78249       77.30129
C         82.45676       33.40288       77.40333
O         83.06810       32.42367       76.99954
C         84.52085       34.80177       76.73410
C         84.60956       34.41273       75.24967
C         86.02572       34.53535       74.76175
O         86.99671       33.77599       75.30475
O         86.30326       35.32145       73.86990
H         82.55880       36.40831       78.55738
H         82.44699       35.36748       76.59444
H         85.18475       34.15506       77.34844
H         84.89417       35.84563       76.80829
H         83.95722       35.09430       74.65989
H         84.27020       33.37194       75.07949
N         81.21184       33.26474       77.93741
C         80.49357       31.99634       77.97417
C         79.11935       32.13012       77.31074
O         78.39895       31.14314       77.25429
C         80.39582       31.54383       79.44801
C         79.88033       30.10856       79.70011
C         80.79354       29.03959       79.15520
O         80.94815       28.90016       77.95322
O         81.42741       28.20511       80.00128
H         80.76234       34.09508       78.35262
H         81.06687       31.23389       77.41395
H         79.74786       32.26663       79.98824
H         81.41176       31.60069       79.89991
H         78.85239       29.96227       79.31604
H         79.82931       29.96804       80.79747
N         78.67904       33.30888       76.77563
C         77.36444       33.44618       76.18815
H         76.58682       33.24054       76.95443
H         77.22367       34.48423       75.81612
H         77.24883       32.74352       75.33698
H         79.27058       34.15055       76.77607
Ca        83.14113       26.26930       77.94571
O         84.17991       25.42101       80.97492
H         84.36672       24.56187       81.42898
H         84.99383       25.60028       80.44162
O         84.79725       28.57156       79.37263
H         84.64535       29.52631       79.58585
H         85.78102       28.46215       79.40281
O         82.07445       25.99036       75.11941
H         82.79328       25.35691       75.37078
H         81.31388       25.75149       75.70701
O         85.88239       25.41767       77.67340
H         86.24586       24.92781       78.45283
H         86.48055       26.19916       77.56725
O         84.12322       28.48217       76.39703
H         83.98360       29.05667       75.60395
H         85.08287       28.23962       76.36857

Ca 1.0



