%chk=apoCaM-CA-Ng.loop4.water4.frame821.chk
%nprocshared=20
%mem=10GB
%nosave
#b3lyp/svp scf=(tight,noincore,xqc) Test 
#IOP(5/87=12) Density=Current Pop=(MK,readradii) iop(6/33=2) iop(6/42=6)

apoCaM-CA-Ng.loop4.water4.frame821 

   -3  1 
C         72.10133       94.60145       68.01907
C         73.53519       95.04346       68.01713
O         73.90112       95.86017       68.84965
H         71.44070       95.47662       67.85993
H         71.90314       93.86303       67.21358
H         71.85809       94.13537       68.99602
N         74.41093       94.53379       67.10472
C         75.82430       94.88664       67.03236
C         76.50513       94.51319       68.32975
O         77.07532       95.36623       68.99744
C         76.04807       96.36879       66.64492
C         75.38281       96.75031       65.35120
O         75.46158       97.90036       64.95095
O         74.63274       95.86064       64.67136
H         74.06764       93.83565       66.42702
H         76.29678       94.27949       66.22643
H         77.14062       96.55248       66.54310
H         75.65718       97.03572       67.44139
N         76.50660       93.20908       68.71737
C         77.22956       92.71996       69.88631
C         78.45091       91.95189       69.40439
O         78.48367       91.58407       68.23709
C         76.31326       91.84589       70.80883
C         75.66404       90.65717       70.03997
C         75.24753       92.72304       71.48242
C         74.93519       89.65330       70.93693
H         76.05554       92.52474       68.09186
H         77.61579       93.58740       70.46021
H         76.94730       91.42809       71.61786
H         76.45638       90.09024       69.50765
H         74.93641       91.03179       69.28845
H         75.74553       93.53519       72.05062
H         74.56288       93.16975       70.73057
H         74.64814       92.14246       72.21319
H         74.07837       90.11656       71.46550
H         74.53190       88.82909       70.30959
H         75.63867       89.21847       71.67747
N         79.53416       91.68130       70.18813
C         79.74763       92.09507       71.57144
C         81.03181       92.91294       71.65389
O         82.04456       92.46974       71.12749
C         79.86562       90.83124       72.43963
C         80.07286       91.16414       73.89133
O         81.18127       90.74042       74.52733
O         79.23830       91.81481       74.50045
H         80.29642       91.13912       69.75025
H         78.90248       92.69084       71.97088
H         80.71062       90.20629       72.07654
H         78.93257       90.23490       72.34719
N         81.08836       94.08599       72.34994
C         82.33277       94.83805       72.45756
C         82.23853       95.95411       73.47138
O         82.99629       95.94080       74.43198
H         80.24723       94.41597       72.84849
H         82.60720       95.24803       71.46149
H         83.14313       94.15107       72.78917
N         81.32596       96.95392       73.32850
C         81.17533       98.03741       74.29853
C         80.91707       97.50247       75.69553
O         81.64058       97.88349       76.60668
C         80.09000       99.05884       73.87582
C         78.69428       98.50660       73.72003
O         77.68734       99.00127       74.46424
O         78.45168       97.65049       72.88547
H         80.72200       96.93275       72.49540
H         82.12834       98.61471       74.33371
H         80.39109       99.51850       72.91066
H         80.06841       99.87024       74.63875
N         79.94036       96.58319       75.94061
C         79.70142       96.06280       77.27571
C         79.05628       97.07983       78.19468
O         78.95188       96.79294       79.37811
H         79.38770       96.20461       75.15767
H         80.66758       95.71103       77.70095
H         79.01862       95.18735       77.22652
N         78.53203       98.25271       77.71867
C         77.85597       99.25626       78.53763
C         76.58294       98.73754       79.20677
O         75.98589       99.49434       79.96089
C         78.84590       99.89525       79.54465
C         80.04220      100.58444       78.84731
C         79.68410      101.80914       78.02655
N         80.64908      102.46369       77.34068
O         78.53610      102.22683       77.98439
H         78.59247       98.45898       76.71538
H         77.50252      100.06553       77.86756
H         79.23367       99.11293       80.22883
H         78.32681      100.65307       80.17110
H         80.55782       99.84738       78.19657
H         80.76357      100.91195       79.62579
H         81.62525      102.13512       77.36154
H         80.41872      103.30015       76.78308
N         76.05996       97.50498       78.92705
C         74.80677       97.00446       79.49046
C         73.72724       96.83408       78.41897
O         72.59477       96.55247       78.78078
C         75.04126       95.66395       80.24916
C         75.62194       94.55811       79.34332
C         75.95419       95.87004       81.46484
H         76.54002       96.90198       78.24954
H         74.39364       97.74334       80.21229
H         74.05991       95.30701       80.63298
H         75.70286       93.60537       79.90789
H         74.96634       94.38048       78.46524
H         76.64013       94.81472       78.98282
H         76.07336       94.91444       82.01965
H         76.95886       96.22604       81.15546
H         75.50648       96.61541       82.15550
N         74.00649       96.96270       77.08821
C         73.03004       96.78694       76.01649
C         73.05979       98.00295       75.09462
O         73.95548       98.82665       75.21658
C         73.42508       95.49014       75.27643
C         72.72390       95.24666       73.96667
N         73.44194       95.21733       72.81820
O         71.51517       95.07397       73.93610
H         74.97161       97.14803       76.78869
H         71.99960       96.69048       76.42424
H         73.25410       94.62336       75.95284
H         74.51663       95.53722       75.07503
H         74.46223       95.36639       72.83328
H         72.98545       95.05386       71.91011
N         72.07461       98.19882       74.16255
C         72.09372       99.35087       73.25935
C         70.72995       99.57857       72.59257
O         69.86403       98.72038       72.67701
C         73.21428       99.14110       72.20525
C         73.74422      100.42653       71.63144
C         73.26438      100.94879       70.42120
C         74.76046      101.10915       72.32265
C         73.77729      102.15367       69.92618
C         75.28054      102.30167       71.82065
C         74.78716      102.83385       70.62672
O         75.28982      103.99648       70.16573
H         71.28041       97.54741       74.15294
H         72.29568      100.24035       73.89694
H         72.89212       98.42392       71.41757
H         74.09273       98.64163       72.66912
H         72.48585      100.43397       69.87305
H         75.15510      100.71261       73.25094
H         73.38945      102.55816       69.00036
H         76.06536      102.81297       72.36444
H         74.96863      104.41037       69.35261
N         70.45409      100.75633       71.95639
C         69.15956      101.06755       71.35249
C         69.33667      101.43580       69.88392
O         69.33809      102.61688       69.56375
C         68.47121      102.21420       72.11660
C         68.09263      101.79971       73.54607
C         67.32734      102.86905       74.27891
O         66.90698      102.63249       75.53530
O         67.06904      103.94110       73.75262
H         71.17232      101.49345       71.94253
H         68.45251      100.22223       71.42728
H         67.52881      102.46596       71.57781
H         69.12374      103.11497       72.13449
H         69.01076      101.55665       74.12088
H         67.44937      100.89339       73.50068
N         69.48949      100.50315       68.90229
C         69.44996       99.05837       69.11520
C         68.05810       98.59458       69.52004
O         67.11415       99.37370       69.47171
C         69.88178       98.33864       67.82540
C         71.34821       98.65694       67.49615
C         71.72010       98.10433       66.16205
O         72.65548       97.15116       66.07437
O         71.18796       98.52640       65.14791
H         69.63432      100.85773       67.94281
H         70.16588       98.79409       69.92194
H         69.21366       98.66333       66.99575
H         69.78127       97.23688       67.93405
H         71.99233       98.21673       68.28969
H         71.54197       99.74860       67.46373
N         67.86981       97.32529       69.97338
C         66.57993       96.85526       70.43136
H         65.84100       96.89425       69.60383
H         66.66384       95.80761       70.79075
H         66.22574       97.48724       71.27477
H         68.67296       96.68083       70.02848
Ca        73.14433       96.57185       63.13731
O         73.92604       99.38333       62.53517
H         74.91417       99.32260       62.51900
H         73.66980       99.51813       61.58845
O         74.58482       95.83244       60.83418
H         75.33482       95.18741       60.85679
H         75.01779       96.72297       60.85488
O         70.15192       95.98173       64.10529
H         69.36123       95.80214       63.53780
H         69.77916       96.13483       65.00989
O         71.19882       96.85877       60.95796
H         70.48743       97.42399       61.35141
H         71.40144       97.28103       60.08594

Ca 1.0



