%chk=apoCaM-CA-Ng.loop2.water3.frame678.chk
%nprocshared=20
%mem=10GB
%nosave
#b3lyp/svp scf=(tight,noincore,xqc) Test 
#IOP(5/87=12) Density=Current Pop=(MK,readradii) iop(6/33=2) iop(6/42=6)

apoCaM-CA-Ng.loop2.water3.frame678 

   -2  1 
C        -11.89251       58.58749       72.33010
C        -13.03625       57.74097       71.85158
O        -13.57388       58.02807       70.79173
H        -11.07070       58.56211       71.58449
H        -12.23632       59.63607       72.45573
H        -11.49928       58.22770       73.30412
N        -13.46918       56.67974       72.59007
C        -14.58872       55.83223       72.20352
C        -14.08973       54.40592       72.02617
O        -14.51432       53.50972       72.74348
C        -15.70111       55.97410       73.26861
C        -16.98252       55.24910       72.93605
O        -18.01906       55.32158       73.79201
O        -17.10483       54.61082       71.90177
H        -12.99327       56.46592       73.48055
H        -15.02034       56.16341       71.23283
H        -15.95406       57.05238       73.36823
H        -15.32321       55.61573       74.25065
N        -13.17273       54.13677       71.05403
C        -12.64097       52.80649       70.77425
C        -11.12761       52.81245       70.93909
O        -10.51388       53.79536       70.54637
C        -13.00365       52.40344       69.34647
H        -12.84484       54.91891       70.46546
H        -13.10851       52.06776       71.45135
H        -12.61677       51.38357       69.13205
H        -14.10826       52.38948       69.22994
H        -12.57155       53.11525       68.61163
N        -10.41759       51.79506       71.51354
C        -10.94830       50.49002       71.90140
C        -11.13447       50.38140       73.40042
O        -10.86410       51.34196       74.10438
C        -10.10577       49.36569       71.25770
C         -8.62861       49.21393       71.57612
O         -8.03247       48.31837       70.99943
O         -7.91216       49.98175       72.42991
H         -9.40729       51.94853       71.63671
H        -11.96070       50.34256       71.48382
H        -10.17451       49.51136       70.15654
H        -10.58866       48.39202       71.48410
N        -11.67202       49.25935       73.96519
C        -11.93412       49.17073       75.39479
C        -13.01311       50.14849       75.83547
O        -13.63311       50.76974       74.98315
H        -11.89851       48.44543       73.37503
H        -10.98577       49.38934       75.92749
H        -12.26454       48.14327       75.66118
N        -13.28966       50.39598       77.14980
C        -12.58569       49.79174       78.27804
C        -11.67830       50.83017       78.91691
O        -11.76139       51.99724       78.55753
C        -13.60387       49.28613       79.32265
C        -14.57323       48.27269       78.76982
N        -14.14562       47.06566       78.33583
O        -15.76568       48.53936       78.73439
H        -13.99452       51.12076       77.36152
H        -11.94385       48.95383       77.93969
H        -14.18113       50.16368       79.69382
H        -13.07848       48.83562       80.19151
H        -13.14781       46.81453       78.37514
H        -14.81946       46.37395       77.97440
N        -10.76136       50.46774       79.86103
C         -9.87957       51.42473       80.51852
C         -8.40782       51.21886       80.20618
O         -7.60953       51.98967       80.71916
H        -10.68281       49.47388       80.12598
H        -10.03747       51.35145       81.61524
H        -10.12553       52.46524       80.21695
N         -7.95963       50.23333       79.37463
C         -6.54785       50.06953       79.02330
C         -6.05486       51.29118       78.26185
O         -6.68614       51.68146       77.28960
C         -6.35174       48.78411       78.18517
C         -4.89283       48.57411       77.76355
O         -6.75459       47.67703       78.95466
H         -8.64061       49.57774       78.96443
H         -5.94868       49.93524       79.95226
H         -6.96089       48.86664       77.25735
H         -7.44049       47.18042       78.43768
H         -4.54624       49.40660       77.11657
H         -4.23300       48.51157       78.65490
H         -4.80235       47.63157       77.18325
N         -4.89056       51.90492       78.62190
C         -4.35236       53.07599       77.93813
C         -3.24094       52.63797       76.99689
O         -2.24428       52.08730       77.44429
C         -3.87997       54.13704       78.98035
C         -3.15260       55.33133       78.30173
C         -5.08796       54.62163       79.80715
C         -2.55756       56.33379       79.29448
H         -4.32886       51.48990       79.38148
H         -5.14405       53.54546       77.32066
H         -3.15193       53.64573       79.66407
H         -3.83965       55.86499       77.61414
H         -2.29732       54.94624       77.70712
H         -5.59432       53.76826       80.30155
H         -4.77758       55.31368       80.61459
H         -5.82240       55.14004       79.15254
H         -1.85529       55.82024       79.98579
H         -1.99572       57.11370       78.73808
H         -3.34511       56.84601       79.88195
N         -3.36637       52.87710       75.65798
C         -2.39672       52.51560       74.63905
C         -1.80847       53.74594       73.94314
O         -1.01647       53.55101       73.03300
C         -3.09826       51.62625       73.59091
C         -3.71099       50.40270       74.21270
O         -4.91588       50.21699       74.14278
O         -2.93424       49.50483       74.84734
H         -4.22094       53.32355       75.31427
H         -1.54953       51.94954       75.08608
H         -2.37055       51.30132       72.81677
H         -3.89554       52.22021       73.08806
N         -2.10280       55.03255       74.32548
C         -1.49999       56.20516       73.69428
C         -2.57830       57.21489       73.26762
O         -2.57042       58.32462       73.77629
C         -0.50380       56.84333       74.69907
C          0.36066       57.98157       74.16818
C          1.18948       58.65699       75.08208
C          0.38239       58.38817       72.81357
C          2.00936       59.70963       74.66258
C          1.21015       59.43643       72.39926
C          2.02093       60.09778       73.32213
H         -2.72083       55.19839       75.13053
H         -0.90831       55.90350       72.80580
H          0.19052       56.05556       75.06474
H         -1.08686       57.20830       75.57434
H          1.19542       58.37119       76.12666
H         -0.22370       57.90598       72.06136
H          2.63758       60.22458       75.37783
H          1.22334       59.73598       71.35880
H          2.65880       60.91018       72.99781
N         -3.52623       56.93540       72.31553
C         -4.47577       57.93337       71.82381
C         -5.37099       58.55852       72.88094
O         -5.98819       59.57699       72.59190
C         -5.32372       57.15519       70.81441
C         -4.32197       56.15404       70.27884
C         -3.60604       55.71171       71.55553
H         -3.86724       58.72617       71.33306
H         -6.09491       56.56415       71.36169
H         -5.83251       57.78777       70.05535
H         -4.75197       55.32573       69.67780
H         -3.59719       56.71771       69.64666
H         -4.20741       54.97558       72.13382
H         -2.61645       55.28884       71.28136
N         -5.52546       57.99405       74.11118
C         -6.32200       58.60106       75.16733
C         -5.58180       59.82661       75.65285
O         -6.11303       60.92374       75.57290
C         -6.60740       57.67074       76.38430
C         -7.43667       56.40718       76.06436
C         -6.63145       55.25308       75.54647
O         -7.18601       54.21265       75.23643
O         -5.29400       55.30956       75.52831
H         -5.04272       57.11638       74.28716
H         -7.31944       58.87755       74.75426
H         -7.23630       58.27943       77.07131
H         -5.69256       57.39575       76.95190
H         -8.25565       56.66860       75.36105
H         -7.89622       56.03551       77.00582
N         -4.31766       59.69139       76.15090
C         -3.50733       60.79802       76.61078
H         -2.57995       60.84500       76.00120
H         -4.03449       61.77049       76.52869
H         -3.22856       60.63058       77.67205
H         -3.89220       58.75291       76.19390
Ca        -8.21232       51.73448       73.83021
O         -8.44178       48.89215       75.13096
H         -8.83637       48.30308       75.82163
H         -7.76134       48.32812       74.68528
O         -9.53012       52.10311       76.63923
H         -9.26524       52.51080       77.50124
H        -10.32207       52.62421       76.35456
O         -9.76698       54.48381       73.95469
H         -9.38368       54.39877       73.04586
H        -10.62724       53.99700       73.91009

Ca 1.0



