%chk=apoCaM-CA-Ng.loop3.water5.frame496.chk
%nprocshared=20
%mem=10GB
%nosave
#b3lyp/svp scf=(tight,noincore,xqc) Test 
#IOP(5/87=12) Density=Current Pop=(MK,readradii) iop(6/33=2) iop(6/42=6)

apoCaM-CA-Ng.loop3.water5.frame496 

   0  1 
C         36.27174       64.29062       97.06968
C         34.89404       64.87360       97.18766
O         34.29375       64.74034       98.24468
H         36.93669       64.75321       97.82901
H         36.22717       63.19528       97.24713
H         36.70439       64.46853       96.06315
N         34.32741       65.53953       96.14005
C         32.99254       66.12022       96.18962
C         33.08446       67.62534       96.01284
O         33.48444       68.08821       94.95322
C         32.11555       65.46831       95.10620
C         30.72818       66.04107       95.07187
O         29.93714       65.98141       96.16000
O         30.31057       66.55648       94.04859
H         34.86554       65.64112       95.26538
H         32.51895       65.90948       97.17380
H         32.04264       64.37763       95.30648
H         32.59386       65.60377       94.11024
N         32.74865       68.44596       97.04756
C         32.79660       69.90082       96.99561
C         33.90939       70.38787       97.89088
O         33.97023       69.97153       99.04103
C         31.47575       70.50485       97.50564
C         30.22232       70.14425       96.69850
C         30.26902       70.65513       95.24909
C         28.89400       70.59328       94.55909
N         28.38204       69.23032       94.42483
H         32.47626       68.01641       97.94572
H         32.98486       70.26850       95.96376
H         31.57392       71.61401       97.51439
H         31.30944       70.17525       98.55549
H         29.37214       70.64005       97.21592
H         30.05602       69.04666       96.72357
H         31.02322       70.08660       94.66290
H         30.56874       71.72576       95.25935
H         28.98835       71.04288       93.54597
H         28.16718       71.20714       95.13614
H         28.25659       68.78046       95.35920
H         27.44940       69.26569       93.95367
H         29.03230       68.66917       93.83307
N         34.80994       71.30500       97.43653
C         35.91967       71.78579       98.24542
C         35.74025       73.25874       98.58881
O         34.93615       73.94276       97.96952
C         37.22095       71.51062       97.46725
C         38.45938       71.84281       98.23648
O         39.24036       72.67283       97.80607
O         38.72925       71.20489       99.39030
H         34.70271       71.68536       96.48272
H         35.94875       71.23104       99.20848
H         37.20122       72.08475       96.51521
H         37.26853       70.43117       97.20809
N         36.43541       73.79363       99.63091
C         36.33729       75.17955      100.05607
C         36.88124       76.10754       99.00351
O         36.19274       77.03340       98.59986
H         37.05482       73.17843      100.17680
H         36.95930       75.31231      100.96759
H         35.28755       75.43441      100.32044
N         38.12640       75.88862       98.50092
C         38.75586       76.71485       97.47877
C         38.78957       76.00214       96.12720
O         39.42904       76.50007       95.21205
C         40.12423       77.22712       97.99441
C         41.16490       76.18174       98.32484
N         42.33041       76.56135       98.89967
O         40.97063       75.00110       98.08549
H         38.63828       75.06157       98.83669
H         38.15362       77.63161       97.29557
H         39.92280       77.79786       98.92789
H         40.56117       77.93403       97.25630
H         42.51593       77.55346       99.10957
H         43.04721       75.86311       99.14375
N         37.98562       74.92086       95.88652
C         37.77829       74.33296       94.57060
C         38.89861       73.45222       94.06181
O         38.73609       72.90228       92.98289
H         37.37605       74.57034       96.63672
H         37.54914       75.13660       93.83768
H         36.88247       73.67657       94.62772
N         40.04813       73.25091       94.76246
C         41.11533       72.36321       94.30553
C         42.32581       72.56209       95.19025
O         42.21550       72.45548       96.40341
C         40.66949       70.88176       94.30175
C         41.78543       69.96649       93.83834
C         42.35816       70.11875       92.56152
C         42.26936       68.95502       94.68471
C         43.40243       69.28538       92.14902
C         43.31057       68.11967       94.26800
C         43.88335       68.28515       92.99907
O         44.89217       67.49104       92.58681
H         40.18087       73.76323       95.64427
H         41.39024       72.65381       93.26862
H         39.80655       70.74146       93.61836
H         40.33550       70.60148       95.32515
H         42.00411       70.88564       91.88498
H         41.84295       68.81210       95.66853
H         43.83956       69.41863       91.16714
H         43.67247       67.34596       94.93322
H         45.25509       66.78803       93.14439
N         43.52033       72.89304       94.63147
C         44.65113       73.34220       95.42554
C         44.30614       74.73587       95.92350
O         44.43413       74.99356       97.11148
C         45.96583       73.37869       94.58782
C         46.30338       72.01292       93.92143
C         47.15952       73.84791       95.45296
C         46.65343       70.87546       94.88897
H         43.59666       72.91975       93.60385
H         44.83052       72.64338       96.27219
H         45.82320       74.11040       93.76159
H         47.17319       72.15645       93.24422
H         45.45489       71.68080       93.28862
H         47.33702       73.15992       96.30405
H         48.08016       73.91203       94.83577
H         46.98792       74.83849       95.90703
H         45.82040       70.66740       95.58989
H         46.85879       69.95241       94.30737
H         47.57376       71.10855       95.46332
N         43.82726       75.68101       95.05099
C         43.52095       77.04953       95.45603
C         44.78713       77.83284       95.76623
O         44.68651       78.90668       96.34176
C         42.70035       77.78510       94.38616
O         43.44324       77.91547       93.20423
H         43.65700       75.40848       94.07059
H         42.88881       76.99451       96.36352
H         42.42230       78.78991       94.78243
H         41.76943       77.21519       94.17740
H         43.01831       78.64823       92.68711
N         46.01596       77.34311       95.41759
C         47.30601       77.94590       95.72954
C         47.63669       77.95491       97.22495
O         48.74526       78.34593       97.56059
C         47.43305       79.32876       95.08182
H         46.06002       76.48063       94.86295
H         48.08451       77.30423       95.25620
H         47.24128       79.24313       93.98951
H         46.71728       80.05495       95.51427
H         48.46206       79.72184       95.21932
N         46.75894       77.51921       98.17827
C         47.07803       77.42702       99.59922
C         48.06258       76.30290       99.83791
O         47.84553       75.22079       99.30979
C         45.80580       77.12724      100.40166
H         45.82014       77.21323       97.90332
H         47.46227       78.40163       99.97455
H         46.04466       77.07694      101.48594
H         45.06392       77.93986      100.24643
H         45.35304       76.16240      100.08837
N         49.14377       76.47072      100.65734
C         50.11182       75.41203      100.94982
C         50.92129       75.02348       99.71812
O         51.62345       74.02217       99.76769
C         49.44160       74.17775      101.61451
C         48.76512       74.53139      102.94731
C         48.19926       73.30393      103.60489
O         47.32325       72.65644      103.05358
O         48.65485       72.91426      104.81126
H         49.28043       77.38373      101.11672
H         50.85316       75.79323      101.68676
H         50.22817       73.42100      101.83014
H         48.70667       73.69930      100.93556
H         47.94616       75.26430      102.78565
H         49.51916       74.98624      103.62624
N         50.94111       75.80486       98.60083
C         51.73188       75.46746       97.43900
H         52.80264       75.37544       97.72086
H         51.37434       74.51041       97.00539
H         51.63566       76.26675       96.67330
H         50.41198       76.68565       98.57142
Ca        41.62697       72.40792       99.38163
O         40.55607       70.87141      101.77081
H         40.86387       71.59793      102.36894
H         41.27226       70.18952      101.81712
O         39.80930       74.16725      101.02771
H         39.17756       73.41725      101.15760
H         39.42524       74.91244      101.55319
O         42.79086       73.95862      101.56856
H         43.63880       73.81919      102.05909
H         42.29896       74.63170      102.10218
O         44.49936       72.36033       99.16854
H         44.76914       71.43464       98.94407
H         45.28596       72.91543       98.94024
O         42.28185       69.65560       98.57028
H         41.69785       68.92953       98.23655
H         42.81204       69.93439       97.78177

Ca 1.0



