%chk=apoCaM-CA-Ng.loop1.water5.frame401.chk
%nprocshared=20
%mem=10GB
%nosave
#b3lyp/svp scf=(tight,noincore,xqc) Test 
#IOP(5/87=12) Density=Current Pop=(MK,readradii) iop(6/33=2) iop(6/42=6)

apoCaM-CA-Ng.loop1.water5.frame401 

   0  1 
C         74.41206       93.47446       -6.26186
C         74.12324       92.23291       -7.05062
O         74.90720       91.86448       -7.91332
H         75.36557       93.93971       -6.58693
H         73.58518       94.20254       -6.39768
H         74.48975       93.21451       -5.18400
N         73.00297       91.51690       -6.77465
C         72.66721       90.25843       -7.42706
C         72.11163       90.43925       -8.84485
O         71.57104       89.47184       -9.33970
C         71.65785       89.45629       -6.55828
C         72.22578       89.07923       -5.20981
O         72.55852       90.02623       -4.31221
O         72.37390       87.90275       -4.91706
H         72.39945       91.85109       -6.00732
H         73.56614       89.60539       -7.47545
H         71.41136       88.50433       -7.08150
H         70.71406       90.02522       -6.42221
N         72.18102       91.58811       -9.58305
C         71.54859       91.69047      -10.90462
C         72.52538       91.99528      -12.03416
O         73.33027       92.89973      -11.86054
C         70.45212       92.76411      -10.88929
C         69.29638       92.37908       -9.94972
C         68.00859       93.15374      -10.27449
C         68.10095       94.68037      -10.13896
N         68.29738       95.09718       -8.75203
H         72.65343       92.42077       -9.20697
H         71.03806       90.75502      -11.15509
H         70.04495       92.82748      -11.91793
H         70.86555       93.76301      -10.63130
H         69.60682       92.48923       -8.88864
H         69.04158       91.30833      -10.11280
H         67.18758       92.77778       -9.62713
H         67.73383       92.91970      -11.32729
H         67.14291       95.10981      -10.50655
H         68.91280       95.08441      -10.78180
H         69.21391       94.75242       -8.38899
H         68.28984       96.14180       -8.71090
H         67.51647       94.73345       -8.15842
N         72.47106       91.39702      -13.27630
C         71.55452       90.33555      -13.72218
C         70.09734       90.73267      -13.54667
O         69.40102       90.12033      -12.74898
C         71.95391       88.96320      -13.12091
C         73.23349       88.52213      -13.78602
O         74.28421       89.36089      -13.81582
O         73.26920       87.48603      -14.43076
H         73.12548       91.74882      -13.99275
H         71.67482       90.18498      -14.81339
H         71.18015       88.20077      -13.36016
H         72.06082       89.00349      -12.02090
N         69.52002       91.73134      -14.27581
C         70.18441       92.40823      -15.38709
C         69.26755       93.38846      -16.10622
O         68.22357       93.72932      -15.57252
H         68.53204       91.94202      -14.07241
H         70.44641       91.62280      -16.11699
H         71.10960       92.92660      -15.06152
N         69.52859       93.85157      -17.36690
C         70.69134       93.50119      -18.17740
C         70.29325       92.58188      -19.32441
O         69.11355       92.30652      -19.50773
C         71.40292       94.78308      -18.66442
C         70.49691       95.71025      -19.43336
O         69.97199       95.34726      -20.47379
O         70.26129       96.95277      -18.96906
H         68.81073       94.45303      -17.80261
H         71.42856       92.92801      -17.58049
H         72.27612       94.52278      -19.29936
H         71.78576       95.32605      -17.77364
N         71.25658       92.01133      -20.10013
C         70.99232       91.02057      -21.13271
C         70.33823       89.79470      -20.53915
O         69.29952       89.37034      -21.02346
H         72.24452       92.24788      -19.91784
H         71.96274       90.70771      -21.57524
H         70.36566       91.45343      -21.94298
N         70.88199       89.21497      -19.43413
C         70.28851       88.09112      -18.72430
C         69.63659       88.64221      -17.47563
O         70.31468       89.27813      -16.68790
C         71.37882       87.04899      -18.37442
C         72.07153       86.48385      -19.62143
O         70.84573       86.00217      -17.60258
H         71.71499       89.65519      -19.01742
H         69.50876       87.59635      -19.34468
H         72.15497       87.55198      -17.75960
H         70.16272       85.53730      -18.15249
H         72.54461       87.29728      -20.21108
H         72.86647       85.77022      -19.31682
H         71.34008       85.95151      -20.26558
N         68.30901       88.44758      -17.24225
C         67.58315       89.05630      -16.12812
C         67.25795       88.03792      -15.03675
O         66.53554       88.37406      -14.10836
C         66.34026       89.84201      -16.67679
C         65.25923       89.01351      -17.42912
C         66.82000       90.95126      -17.63136
C         64.53217       87.97335      -16.58230
H         67.78375       87.83878      -17.88617
H         68.21806       89.80728      -15.61471
H         65.84711       90.34690      -15.81650
H         65.68444       88.52175      -18.32904
H         64.47655       89.72128      -17.78409
H         67.55190       91.60603      -17.12542
H         67.29876       90.51797      -18.53611
H         65.96856       91.58498      -17.96097
H         65.20902       87.15581      -16.27338
H         64.07729       88.45481      -15.69065
H         63.72108       87.51532      -17.18704
N         67.78495       86.77919      -15.07248
C         67.44475       85.70189      -14.14158
C         67.79831       85.92657      -12.67240
O         67.41628       85.07205      -11.88826
C         68.13851       84.38429      -14.59258
C         69.67823       84.46457      -14.48610
O         67.76715       84.09461      -15.91521
H         68.41323       86.54553      -15.85127
H         66.34258       85.56093      -14.20147
H         67.78265       83.56242      -13.92816
H         67.98038       83.13775      -16.07025
H         70.13110       83.50317      -14.80321
H         70.09633       85.26961      -15.12323
H         69.99761       84.65783      -13.44083
N         68.56139       86.96935      -12.22928
C         69.04529       87.12955      -10.85145
C         70.03212       86.01657      -10.48337
O         69.74711       84.84473      -10.67902
C         67.91384       87.32231       -9.80278
C         68.46817       87.83207       -8.46424
O         67.21843       86.12588       -9.56514
H         68.87222       87.67023      -12.91315
H         69.60763       88.09110      -10.83253
H         67.22912       88.11914      -10.18290
H         66.25846       86.29384       -9.75256
H         68.98756       88.80463       -8.60393
H         67.63664       87.98980       -7.74480
H         69.18121       87.10450       -8.02186
N         71.22078       86.33826       -9.90909
C         72.28555       85.40745       -9.58641
C         73.59107       85.97843      -10.12249
O         74.18600       85.36751      -10.99862
C         72.30000       85.15663       -8.06256
C         73.44480       84.22325       -7.62967
C         73.33541       83.75250       -6.16756
C         72.18699       82.74437       -5.96283
N         72.17524       82.22230       -4.59670
H         71.37679       87.30785       -9.65918
H         72.09328       84.42390      -10.07180
H         71.31914       84.70018       -7.81910
H         72.37749       86.10925       -7.49368
H         74.39917       84.78041       -7.75398
H         73.48405       83.32414       -8.28151
H         73.22647       84.62373       -5.48457
H         74.28404       83.23127       -5.91422
H         72.32541       81.89330       -6.66713
H         71.20419       83.21397       -6.17531
H         72.00181       82.99679       -3.91630
H         71.40936       81.51504       -4.50941
H         73.08592       81.75543       -4.38006
N         74.08943       87.15478       -9.63472
C         75.31451       87.78738      -10.11280
C         76.34869       87.76202       -9.01186
O         76.09527       88.29506       -7.93963
C         75.02958       89.25018      -10.52759
C         76.26384       90.06329      -10.97456
C         76.91923       89.56562      -12.23240
O         77.46586       88.33750      -12.29352
O         77.00481       90.30482      -13.19785
H         73.58412       87.62171       -8.86786
H         75.70328       87.24206      -10.99625
H         74.60636       89.78215       -9.65420
H         74.26450       89.27217      -11.32176
H         77.02093       90.08541      -10.16367
H         75.93059       91.11138      -11.14543
N         77.55998       87.17959       -9.22968
C         78.62137       87.15450       -8.24671
H         79.50573       87.68758       -8.65495
H         78.32832       87.64327       -7.29419
H         78.89868       86.10177       -8.03514
H         77.75603       86.74623      -10.14427
Ca        75.78262       89.25931      -15.49223
O         74.77662       87.73722      -17.73682
H         75.19220       87.14902      -18.41474
H         74.59572       87.14148      -16.96649
O         77.93561       87.37682      -15.71189
H         78.17684       88.07356      -15.05038
H         77.24720       86.82960      -15.25618
O         77.49929       89.80883      -18.11339
H         78.21569       90.49152      -18.08552
H         77.98184       88.94439      -18.12211
O         73.23916       90.69727      -17.05388
H         73.70773       90.60390      -17.92089
H         73.01649       89.76840      -16.79420
O         78.45699       91.63879      -15.57502
H         78.47064       91.95812      -14.63834
H         79.41224       91.54123      -15.81616

Ca 1.0



