%chk=apoCaM-CA-Ng.loop4.water3.frame415.chk
%nprocshared=20
%mem=10GB
%nosave
#b3lyp/svp scf=(tight,noincore,xqc) Test 
#IOP(5/87=12) Density=Current Pop=(MK,readradii) iop(6/33=2) iop(6/42=6)

apoCaM-CA-Ng.loop4.water3.frame415 

   -3  1 
C         72.53295       74.44104        6.30996
C         72.43508       73.06916        6.90308
O         72.85875       72.13106        6.25371
H         73.60047       74.66567        6.09669
H         71.95838       74.48007        5.36183
H         72.14310       75.21350        7.00423
N         71.92635       72.88067        8.15291
C         71.89303       71.59648        8.84188
C         73.28039       71.01545        9.00896
O         73.52438       69.88794        8.61855
C         70.77750       70.62573        8.35686
C         70.51196       70.33695        6.89156
O         71.36959       69.71458        6.05592
O         69.39978       70.59508        6.45792
H         71.61166       73.70661        8.68430
H         71.58901       71.79334        9.89656
H         69.82941       71.07178        8.73649
H         70.89272       69.66000        8.89625
N         74.20456       71.74000        9.70861
C         75.51396       71.27550       10.16223
C         75.30783       70.10030       11.10732
O         75.21085       70.33611       12.30396
C         76.53208       71.05189        9.00697
C         77.93352       70.62199        9.52215
C         76.63935       72.31249        8.12884
C         78.62178       71.61449       10.46923
H         73.92399       72.68067       10.02815
H         75.91575       72.10969       10.77981
H         76.16630       70.24008        8.34429
H         78.59750       70.47086        8.64530
H         77.84879       69.64728       10.04822
H         77.36282       72.14579        7.30325
H         75.65607       72.55138        7.67148
H         76.96625       73.19335        8.71879
H         79.61916       71.21830       10.75361
H         78.77519       72.59932        9.98325
H         78.03968       71.74954       11.40351
N         75.13608       68.82851       10.64285
C         74.59827       67.74947       11.45771
C         75.66384       66.76519       11.94420
O         75.72043       66.60579       13.15628
C         73.39518       67.12147       10.72864
C         72.66684       66.12356       11.58527
O         72.53289       64.97061       11.20966
O         72.13196       66.50659       12.76132
H         75.26485       68.64158        9.64214
H         74.15659       68.19070       12.38216
H         73.71579       66.66452        9.77374
H         72.67242       67.92927       10.47685
N         76.57631       66.08201       11.18442
C         76.80715       66.15342        9.75103
C         75.91696       65.22589        8.94595
O         75.03865       64.59793        9.51885
H         77.25884       65.50842       11.70627
H         77.83397       65.76445        9.58700
H         76.83240       67.19738        9.40170
N         76.11793       65.00655        7.60780
C         77.16937       65.65136        6.80950
C         76.85473       67.15081        6.66045
O         75.78020       67.54428        7.09510
C         77.38624       64.83009        5.50649
C         76.26233       64.91575        4.52282
O         75.55829       63.81294        4.20447
O         76.02567       65.96949        3.95749
H         75.51491       64.30330        7.15145
H         78.12318       65.54629        7.36830
H         77.52734       63.76849        5.81063
H         78.31043       65.08762        4.97059
N         77.70587       68.09897        6.16734
C         78.99040       67.91555        5.52935
C         80.12248       68.32989        6.41777
O         79.93148       68.51390        7.61173
H         77.41851       69.08169        6.26316
H         78.98847       68.51929        4.59539
H         79.20241       66.88303        5.25192
N         81.36806       68.43037        5.88184
C         82.57100       68.62477        6.67707
C         83.21360       69.99136        6.47569
O         84.11233       70.30069        7.24672
C         83.52029       67.41441        6.48884
C         83.83759       67.02312        5.03147
C         84.55792       68.09762        4.28099
N         85.78983       68.48996        4.66614
O         84.03426       68.60694        3.30329
H         81.46095       68.33082        4.86053
H         82.30275       68.63146        7.75717
H         83.01068       66.52986        6.93052
H         84.45464       67.57604        7.06737
H         82.90021       66.75381        4.50044
H         84.46838       66.10947        5.02570
H         86.25376       68.05864        5.47820
H         86.28478       69.21457        4.13693
N         82.74900       70.90437        5.56775
C         83.11001       72.32462        5.63255
C         83.86583       72.85410        4.41363
O         84.21008       74.02758        4.43454
C         81.82395       73.16799        5.91304
C         81.13633       72.71574        7.21511
C         80.80696       73.12632        4.75736
H         82.03041       70.61956        4.88927
H         83.79567       72.50319        6.49008
H         82.12801       74.22953        6.04985
H         80.78042       71.66531        7.13822
H         81.84035       72.79128        8.07032
H         80.25669       73.35892        7.43350
H         81.26421       73.49292        3.81506
H         80.41037       72.10408        4.58933
H         79.94578       73.78598        4.99631
N         84.16788       72.07969        3.33104
C         84.87222       72.59045        2.15079
C         84.00113       72.54536        0.90622
O         84.48453       72.99711       -0.12538
C         86.14523       71.75167        1.86976
C         87.26774       71.97227        2.84989
N         87.87564       73.17718        2.94000
O         87.67836       71.04351        3.52535
H         83.87400       71.09569        3.32428
H         85.15640       73.65767        2.28023
H         86.56852       72.01939        0.87664
H         85.86008       70.67678        1.82952
H         87.57627       73.96597        2.34919
H         88.67199       73.31132        3.58078
N         82.73409       72.03461        0.88895
C         81.97258       71.91845       -0.35772
C         80.52338       71.51147       -0.14462
O         80.19196       71.01452        0.91801
C         82.67855       70.91688       -1.31864
C         83.04243       69.60424       -0.63613
C         84.39818       69.27328       -0.44140
C         82.05854       68.70915       -0.17668
C         84.75838       68.08706        0.20526
C         82.42174       67.52331        0.47147
C         83.76960       67.20823        0.66621
O         84.10139       66.06545        1.30134
H         82.30963       71.71060        1.76951
H         81.92272       72.93007       -0.81974
H         83.61384       71.39104       -1.67765
H         82.07050       70.73064       -2.22857
H         85.18298       69.93876       -0.77894
H         81.00883       68.91795       -0.31516
H         85.80614       67.85555        0.35305
H         81.65275       66.84873        0.82651
H         85.02203       65.81662        1.46782
N         79.62681       71.68927       -1.16798
C         78.19569       71.35840       -1.20682
C         77.31310       72.23327       -0.31308
O         76.45067       72.92159       -0.84161
C         77.94232       69.85716       -0.96995
C         76.47233       69.49794       -1.25990
C         76.21812       68.03217       -1.08063
O         76.39977       67.45690        0.12308
O         75.82474       67.35845       -2.01961
H         80.00452       72.08872       -2.04211
H         77.86646       71.56345       -2.25277
H         78.20403       69.57765        0.07257
H         78.58913       69.27657       -1.66423
H         76.22669       69.78929       -2.30619
H         75.79487       70.05286       -0.57628
N         77.44228       72.22806        1.04044
C         76.60394       72.96350        1.97998
C         76.48580       74.42380        1.58743
O         75.36695       74.90805        1.48239
C         77.18522       72.84618        3.41541
C         77.29794       71.41208        3.98789
C         75.96784       70.76456        4.23487
O         75.20995       70.51315        3.31235
O         75.62338       70.43068        5.49187
H         78.17440       71.65498        1.44009
H         75.57836       72.53863        1.96849
H         76.57048       73.45016        4.11831
H         78.20708       73.28071        3.40001
H         77.82619       71.48456        4.96225
H         77.91121       70.74583        3.34938
N         77.58911       75.17273        1.31006
C         77.51727       76.56046        0.89419
H         76.47819       76.95420        0.90064
H         78.12787       77.18347        1.57875
H         77.91527       76.65705       -0.13789
H         78.52129       74.73510        1.35784
Ca        73.60613       69.57391        5.94376
O         72.40618       66.86594        6.78872
H         72.37948       66.06282        6.21026
H         71.71554       66.70089        7.47849
O         72.19595       70.55777        3.32441
H         72.01828       71.41806        3.78074
H         71.61334       70.57546        2.52487
O         73.23795       67.52152        3.61464
H         73.79987       67.82088        2.85644
H         73.88306       67.18493        4.28497

Ca 1.0



