%chk=apoCaM-CA-Ng.loop2.water4.frame441.chk
%nprocshared=20
%mem=10GB
%nosave
#b3lyp/svp scf=(tight,noincore,xqc) Test 
#IOP(5/87=12) Density=Current Pop=(MK,readradii) iop(6/33=2) iop(6/42=6)

apoCaM-CA-Ng.loop2.water4.frame441 

   -2  1 
C        106.76690       91.83475       63.13656
C        108.00751       92.67837       63.16312
O        108.69442       92.70487       64.17317
H        105.88383       92.47466       62.92829
H        106.85566       91.06775       62.33853
H        106.61519       91.32173       64.11036
N        108.37079       93.38596       62.05899
C        109.57314       94.21629       62.00396
C        109.45004       95.43017       62.93411
O        108.37935       95.67326       63.47306
C        109.80533       94.63605       60.52963
C        111.09652       95.36034       60.28103
O        111.08788       96.48732       59.81220
O        112.27164       94.76240       60.55732
H        107.78308       93.29223       61.21496
H        110.43301       93.58832       62.32789
H        108.94896       95.25958       60.18942
H        109.83131       93.71766       59.90274
N        110.52231       96.24379       63.15768
C        110.47980       97.44595       63.98621
C        110.20972       97.13017       65.44782
O        110.73431       96.15376       65.96511
C        111.80381       98.20970       63.87732
H        111.41515       96.01045       62.70356
H        109.69603       98.13211       63.59291
H        112.65050       97.59083       64.24207
H        111.99009       98.48600       62.81660
H        111.75541       99.14716       64.47287
N        109.44083       97.97910       66.18817
C        109.13088       97.78793       67.60710
C        110.40578       97.75376       68.43452
O        111.16266       98.71583       68.39576
C        108.22113       98.92552       68.11826
C        106.98332       99.10194       67.27311
O        106.00694       98.17345       67.18933
O        106.84973      100.13713       66.63978
H        109.06454       98.81135       65.70914
H        108.57838       96.84089       67.73648
H        108.80133       99.87557       68.07579
H        107.93217       98.75204       69.17663
N        110.70860       96.67333       69.21147
C        111.94385       96.63134       69.98547
C        112.18141       95.40188       70.85666
O        113.26292       95.34866       71.42679
H        110.04490       95.89223       69.21827
H        111.98253       97.51718       70.65817
H        112.79332       96.70219       69.27122
N        111.26915       94.40078       71.06422
C        111.56292       93.27007       71.94701
C        112.65179       92.36961       71.37809
O        113.02393       92.50737       70.22026
C        110.30128       92.41228       72.19577
C        109.21643       93.17542       72.91441
N        107.99173       93.33363       72.36094
O        109.44173       93.63886       74.02234
H        110.33277       94.45013       70.64798
H        111.91275       93.67463       72.92381
H        110.55555       91.53587       72.82945
H        109.93366       92.03093       71.22051
H        107.77406       92.94395       71.43461
H        107.25184       93.84389       72.86535
N        113.20896       91.41547       72.17730
C        114.21390       90.45558       71.74514
C        113.77442       89.06569       72.13904
O        113.55978       88.85239       73.32534
H        112.91579       91.37986       73.16632
H        115.16438       90.67102       72.27792
H        114.40833       90.52710       70.65323
N        113.60584       88.07120       71.21636
C        113.12750       86.73329       71.58222
C        111.72711       86.46598       71.04835
O        111.05286       85.60693       71.59644
C        114.12963       85.62236       71.19274
C        114.29758       85.44067       69.67667
O        115.37537       85.85020       71.80390
H        113.80326       88.28396       70.22725
H        113.02026       86.68259       72.68814
H        113.73865       84.65941       71.58879
H        115.78232       86.64955       71.37747
H        113.32707       85.17833       69.20863
H        114.68993       86.36192       69.19979
H        115.00846       84.61049       69.48025
N        111.20348       87.20107       70.02628
C        109.79365       87.17522       69.64842
C        109.24125       88.57382       69.86122
O        110.00768       89.45980       70.21793
C        109.59644       86.65510       68.19115
C        110.34703       87.51270       67.13635
C        110.01058       85.17387       68.12255
C        110.04792       87.10199       65.69070
H        111.79985       87.87602       69.53181
H        109.21697       86.50786       70.32520
H        108.50893       86.70010       67.96264
H        111.44457       87.45198       67.29661
H        110.03505       88.57355       67.24367
H        111.09615       85.05778       68.31731
H        109.44844       84.58637       68.87954
H        109.77412       84.72969       67.13561
H        108.95870       87.17383       65.48588
H        110.58387       87.78093       64.99430
H        110.39490       86.07083       65.47731
N        107.91978       88.85540       69.67316
C        107.40088       90.20428       69.85438
C        106.33485       90.21804       70.94599
O        105.27331       90.78896       70.76130
C        107.01103       90.72826       68.45666
C        106.72631       92.19486       68.38360
O        105.73979       92.58669       67.78868
O        107.61976       93.08800       68.84897
H        107.27460       88.11163       69.36931
H        108.20333       90.87037       70.22433
H        106.17202       90.13376       68.03170
H        107.89741       90.57697       67.80168
N        106.58731       89.58970       72.13640
C        105.69471       89.57707       73.30149
C        104.28555       89.13267       72.93363
O        104.14669       88.08525       72.32088
C        106.30192       88.67665       74.41005
C        105.46930       88.60914       75.67580
C        105.88456       89.28842       76.83466
C        104.28076       87.85339       75.72067
C        105.11870       89.22783       78.00392
C        103.52285       87.79019       76.89319
C        103.93926       88.47981       78.03307
H        107.48342       89.08501       72.22005
H        105.66417       90.60915       73.70317
H        107.29877       89.10722       74.65187
H        106.47512       87.64138       74.04213
H        106.79451       89.87468       76.83185
H        103.94159       87.30032       74.85563
H        105.44025       89.76091       78.88904
H        102.61315       87.20359       76.91834
H        103.34998       88.43107       78.93979
N        103.18087       89.86073       73.30588
C        101.80654       89.55146       72.92756
C        101.61682       89.52408       71.42335
O        100.98476       88.61055       70.91272
C        100.99624       90.71445       73.52376
C        101.79719       91.04757       74.75665
C        103.21772       90.99822       74.20744
H        101.50177       88.59098       73.40174
H        101.06198       91.61326       72.86818
H         99.92262       90.48450       73.69446
H        101.52852       91.99964       75.26116
H        101.66783       90.20929       75.48140
H        103.48118       91.91115       73.62925
H        103.89882       90.86145       75.07347
N        102.17593       90.50434       70.65307
C        102.04575       90.59491       69.19794
C        102.59860       89.37481       68.45466
O        102.41131       89.31432       67.24714
C        102.79465       91.84590       68.67190
C        102.25862       93.18529       69.20232
C        103.09260       94.33916       68.70500
O        104.39457       94.45070       69.04825
O        102.58582       95.19697       68.00029
H        102.72127       91.22856       71.14160
H        100.96434       90.68087       68.95282
H        102.74092       91.87874       67.56096
H        103.85197       91.73768       68.96798
H        102.27092       93.22097       70.30975
H        101.20750       93.30353       68.86074
N        103.28895       88.37869       69.08084
C        103.80336       87.20429       68.40673
H        104.90402       87.15666       68.54207
H        103.34907       86.29701       68.85897
H        103.57883       87.20299       67.32031
H        103.47837       88.43785       70.08244
Ca       105.54786       96.28045       68.35073
O        104.76961       94.35046       65.35994
H        105.58232       93.79123       65.28489
H        104.03386       93.74758       65.08631
O        103.82374       98.10352       69.63000
H        103.76002       98.62583       68.79109
H        102.88489       97.94699       69.89967
O        107.00529       96.40673       70.88907
H        106.91228       97.37813       71.05691
H        107.81474       96.14154       71.39270
O        107.74408       94.90426       66.56945
H        107.55850       95.63760       65.93149
H        107.88044       94.10766       66.00447

Ca 1.0



