%chk=apoCaM-CA-Ng.loop2.water3.frame582.chk
%nprocshared=20
%mem=10GB
%nosave
#b3lyp/svp scf=(tight,noincore,xqc) Test 
#IOP(5/87=12) Density=Current Pop=(MK,readradii) iop(6/33=2) iop(6/42=6)

apoCaM-CA-Ng.loop2.water3.frame582 

   -2  1 
C         57.20450      101.47363       86.96372
C         55.73776      101.63407       87.24161
O         55.31208      101.41655       88.36683
H         57.74972      101.15470       87.87765
H         57.35161      100.70407       86.17638
H         57.62854      102.43765       86.61211
N         54.89528      102.00329       86.23795
C         53.45522      102.15894       86.41747
C         53.16182      103.29277       87.38367
O         53.65819      104.39129       87.17356
C         52.77857      102.43567       85.06076
C         51.27921      102.41903       85.18376
O         50.70619      101.40754       85.55851
O         50.56060      103.51366       84.87272
H         55.30008      102.15548       85.30030
H         53.04464      101.19759       86.80010
H         53.06616      101.64309       84.33626
H         53.12174      103.41432       84.65816
N         52.33719      103.10489       88.45470
C         52.07069      104.16243       89.43107
C         53.33717      104.42553       90.25161
O         54.26263      103.63691       90.11586
C         50.89939      103.73171       90.32546
H         51.87647      102.18798       88.56424
H         51.75868      105.06476       88.87097
H         51.16161      102.81718       90.89783
H         50.58712      104.51443       91.03309
H         50.01422      103.51445       89.69003
N         53.52256      105.46499       91.12370
C         52.59266      106.55680       91.42645
C         52.24068      107.39559       90.20341
O         52.88194      107.27207       89.17077
C         53.16484      107.44152       92.56968
C         54.58652      107.89844       92.34254
O         55.55582      107.53276       93.20381
O         54.87845      108.57583       91.37738
H         54.42970      105.46572       91.61545
H         51.65253      106.13245       91.81357
H         53.16912      106.83649       93.50166
H         52.51014      108.32183       92.74452
N         51.18425      108.26380       90.25146
C         50.77242      109.07742       89.11369
C         50.30486      108.24277       87.93147
O         50.21157      107.02919       88.05855
H         50.65069      108.35549       91.12934
H         51.63520      109.70632       88.80886
H         49.93543      109.74455       89.41636
N         50.02347      108.79096       86.71305
C         50.14729      110.21065       86.39050
C         51.47838      110.50739       85.72465
O         51.71434      111.66588       85.40117
C         49.01035      110.64352       85.43857
C         47.61910      110.50061       85.99860
N         46.55917      110.84767       85.23258
O         47.43657      110.08257       87.13275
H         49.80163      108.14532       85.93812
H         50.10303      110.83199       87.30952
H         49.07791      110.04442       84.50325
H         49.14642      111.71503       85.17251
H         46.69955      111.20239       84.27426
H         45.59795      110.76285       85.59327
N         52.41335      109.54037       85.50265
C         53.69852      109.82312       84.89851
C         54.46782      110.81008       85.73308
O         54.86701      111.84480       85.21916
H         52.23461      108.56348       85.77837
H         53.55671      110.20967       83.86587
H         54.28743      108.88150       84.83781
N         54.71881      110.53421       87.04116
C         55.54208      111.38519       87.89564
C         56.82908      110.62555       88.29938
O         57.05802      109.56577       87.42702
C         54.75449      111.87575       89.15087
C         53.73041      112.94435       88.77344
O         54.07215      110.84452       89.82373
H         54.36168      109.64467       87.42237
H         55.87193      112.28436       87.32992
H         55.46620      112.35050       89.86145
H         54.47031      109.97680       89.57641
H         52.98433      112.54636       88.05475
H         53.19900      113.28954       89.68742
H         54.24639      113.82034       88.32616
N         57.98250      111.54971       88.22522
C         59.32126      110.96221       87.94607
C         60.24472      111.22064       89.11791
O         60.51351      112.37970       89.40378
C         59.89289      111.54242       86.61410
C         61.26296      110.88959       86.27701
C         58.89012      111.32992       85.45823
C         61.95263      111.48483       85.04655
H         57.95287      112.34384       88.90558
H         59.26018      109.86667       87.80941
H         60.03399      112.63853       86.74295
H         61.13171      109.79689       86.11987
H         61.95860      111.03370       87.13020
H         59.24635      111.80123       84.52063
H         58.72230      110.24704       85.27456
H         57.91509      111.80825       85.68569
H         62.11394      112.57462       85.18589
H         62.93991      110.99542       84.90756
H         61.36723      111.31246       84.12134
N         60.74328      110.18542       89.86086
C         61.56472      110.39479       91.04696
C         62.93101      109.72395       90.97258
O         63.75917      110.05781       91.80995
C         60.82628      109.86883       92.29262
C         59.45243      110.46364       92.45964
O         59.16164      111.18850       93.55549
O         58.58370      110.26425       91.62433
H         60.46901      109.22320       89.62536
H         61.74964      111.48258       91.18366
H         61.43283      110.10053       93.19475
H         60.72385      108.76580       92.22114
N         63.23928      108.73454       90.07789
C         64.54377      108.07305       90.08728
C         64.44154      106.69767       89.42333
O         65.14546      106.44482       88.45509
C         65.58284      109.03250       89.44609
C         67.03596      108.65664       89.63218
C         67.57591      108.52418       90.92515
C         67.88537      108.50931       88.52048
C         68.93629      108.25115       91.10083
C         69.24764      108.24202       88.70201
C         69.77246      108.11454       89.99067
H         62.51969      108.39060       89.42979
H         64.83573      107.87996       91.14081
H         65.48302      110.03032       89.92123
H         65.33447      109.16247       88.36939
H         66.95053      108.64848       91.79949
H         67.50185      108.62325       87.51444
H         69.34523      108.15862       92.09901
H         69.90052      108.14545       87.84384
H         70.82811      107.91723       90.12972
N         63.57640      105.73965       89.90564
C         63.43689      104.38417       89.37434
C         62.98788      104.25711       87.92823
O         62.88960      103.12852       87.46465
C         62.34584      103.75795       90.25605
C         62.56472      104.45689       91.57200
C         62.78758      105.89455       91.11425
H         64.41546      103.87287       89.51580
H         61.34182      104.08863       89.89584
H         62.35659      102.64705       90.28941
H         61.75100      104.32758       92.31612
H         63.51440      104.06722       92.00487
H         61.82996      106.39463       90.85043
H         63.30667      106.43627       91.93106
N         62.67921      105.33657       87.15569
C         62.26848      105.20787       85.76690
C         63.50653      105.30677       84.91357
O         63.81178      104.36237       84.19864
C         61.22242      106.27121       85.36601
C         59.91279      106.19865       86.17627
C         60.10225      106.63040       87.59651
O         59.25071      106.22900       88.55603
O         60.71428      107.66613       87.79038
H         62.79406      106.28479       87.53185
H         61.79297      104.21561       85.59396
H         60.96435      106.11024       84.29722
H         61.64998      107.29589       85.44827
H         59.44900      105.19222       86.12096
H         59.20239      106.92719       85.72476
N         64.30107      106.41034       84.97395
C         65.53758      106.50271       84.23294
H         66.22448      105.68961       84.55309
H         65.33778      106.41500       83.14479
H         66.02725      107.47836       84.43590
H         64.03768      107.19947       85.58369
Ca        57.80202      107.90399       88.78191
O         55.44525      106.29378       88.66496
H         55.92388      105.56626       88.19517
H         55.23658      106.95387       87.95673
O         59.27011      106.62681       92.09234
H         58.98715      107.00237       92.96334
H         59.73091      105.78260       92.32578
O         57.28496      104.89951       90.72822
H         58.13355      104.43914       90.94437
H         56.59682      104.20160       90.85341

Ca 1.0



