%chk=apoCaM-CA-Ng.loop2.water4.frame1385.chk
%nprocshared=20
%mem=10GB
%nosave
#b3lyp/svp scf=(tight,noincore,xqc) Test 
#IOP(5/87=12) Density=Current Pop=(MK,readradii) iop(6/33=2) iop(6/42=6)

apoCaM-CA-Ng.loop2.water4.frame1385 

   -2  1 
C         14.89614       59.63389       58.62455
C         16.23098       59.60275       59.32875
O         17.19901       59.27630       58.65759
H         14.04304       59.98832       59.22333
H         14.97617       60.32718       57.75944
H         14.65396       58.62150       58.24191
N         16.43560       59.95407       60.63436
C         15.41828       60.35072       61.60599
C         15.55000       59.57835       62.92180
O         14.83240       59.90658       63.85691
C         15.52073       61.87301       61.82486
C         16.81606       62.29372       62.45019
O         17.59064       63.01649       61.84373
O         17.10553       61.90445       63.70461
H         17.41694       59.98431       60.95566
H         14.39604       60.16735       61.23710
H         14.69279       62.22239       62.47830
H         15.40193       62.37070       60.83655
N         16.43188       58.54412       63.07183
C         16.65529       57.84049       64.32786
C         18.15171       57.83562       64.61792
O         18.75338       56.76987       64.65300
C         16.08768       56.41843       64.20450
H         16.97418       58.21234       62.26150
H         16.12308       58.32955       65.17331
H         16.23607       55.86031       65.15416
H         14.99690       56.46449       63.99752
H         16.58057       55.86418       63.37701
N         18.83115       59.00685       64.80895
C         20.29081       59.04563       64.95176
C         20.87054       60.43394       65.33801
O         19.95180       61.31460       65.89881
C         20.94752       58.61969       63.61273
C         20.31253       59.21209       62.35010
O         19.98809       58.44466       61.45787
O         20.07034       60.53462       62.16307
H         18.29204       59.88354       64.82601
H         20.58364       58.36670       65.78379
H         20.88053       57.51466       63.51723
H         22.03149       58.85354       63.63373
N         22.14567       60.36627       66.08116
C         22.66019       61.67407       66.52799
C         23.18917       62.55234       65.40747
O         22.45799       62.81648       64.46574
H         22.87601       59.87890       65.51367
H         23.46204       61.50137       67.27627
H         21.86100       62.22438       67.06599
N         24.42909       63.12446       65.50077
C         24.92337       64.12090       64.54763
C         26.28102       63.77429       63.94176
O         26.71833       64.51775       63.07286
C         25.01565       65.48134       65.26607
C         23.66825       65.91386       65.79059
N         23.45271       66.05092       67.11991
O         22.76016       66.13732       65.00418
H         25.00080       62.92979       66.33679
H         24.21439       64.22482       63.69591
H         25.38571       66.26817       64.57320
H         25.74281       65.39174       66.10303
H         24.20149       65.85776       67.80072
H         22.52830       66.34017       67.47249
N         27.01370       62.68915       64.32483
C         28.28839       62.36620       63.69060
C         28.86146       61.08490       64.26479
O         28.11472       60.11710       64.30577
H         26.65569       62.07155       65.06670
H         28.97167       63.22778       63.79385
H         28.10332       62.19814       62.60787
N         30.13995       60.92649       64.72652
C         31.25082       61.87726       64.65990
C         32.41240       61.28999       63.84579
O         33.48262       61.88035       63.85437
C         31.70875       62.25194       66.09163
C         30.62239       63.04329       66.83124
O         32.04605       61.09433       66.81212
H         30.36790       60.00590       65.13645
H         30.98447       62.82348       64.15509
H         32.60157       62.91622       66.00899
H         32.56432       61.39013       67.60571
H         30.98775       63.33617       67.83854
H         30.38311       63.97318       66.27045
H         29.69677       62.44249       66.94608
N         32.25632       60.17619       63.06541
C         33.30362       59.58883       62.22824
C         32.91574       59.80835       60.76886
O         31.80341       59.43803       60.41810
C         33.43764       58.06237       62.53198
C         33.84425       57.84069       64.01261
C         34.45500       57.40054       61.57431
C         33.93183       56.36597       64.41772
H         31.32892       59.73155       63.00620
H         34.28739       60.04349       62.43964
H         32.44893       57.58014       62.35915
H         33.08550       58.31497       64.67124
H         34.82593       58.32391       64.21079
H         34.16195       57.54737       60.51437
H         35.47030       57.82263       61.72552
H         34.49308       56.30328       61.72093
H         34.17738       56.29425       65.49803
H         32.96184       55.85629       64.23784
H         34.73498       55.83744       63.86533
N         33.74928       60.33657       59.81882
C         35.13747       60.75185       60.01576
C         35.85097       60.84116       58.66908
O         35.39471       61.56839       57.79780
C         35.24885       62.10049       60.76663
C         34.58656       63.24647       60.05292
O         33.25955       63.22999       59.82567
O         35.24828       64.20664       59.69195
H         33.37927       60.37397       58.85718
H         35.66512       59.97780       60.61097
H         36.32973       62.32661       60.90743
H         34.80187       62.03501       61.77004
N         36.99943       60.13472       58.44660
C         37.74628       60.18584       57.19352
C         37.99513       58.76821       56.67870
O         38.50551       57.96542       57.44680
C         39.11432       60.86377       57.42667
C         39.80801       61.07531       56.10019
C         40.90175       60.27889       55.72351
C         39.32950       62.05227       55.20761
C         41.49106       60.44411       54.46521
C         39.92678       62.21947       53.95573
C         41.00303       61.41182       53.58216
H         37.38753       59.56491       59.21366
H         37.19915       60.79838       56.45026
H         39.72211       60.22172       58.10226
H         38.99836       61.85060       57.92593
H         41.27934       59.51347       56.38937
H         38.48625       62.67622       55.47838
H         42.32073       59.81540       54.17029
H         39.54773       62.96825       53.27190
H         41.45654       61.53428       52.60707
N         37.74882       58.38495       55.38675
C         37.24023       59.24028       54.33180
C         35.74389       59.44532       54.42051
O         35.26895       60.42323       53.86496
C         37.63354       58.48461       53.05628
C         37.50100       57.03753       53.48229
C         38.10912       57.07237       54.88162
H         37.74653       60.22163       54.28661
H         37.07717       58.77591       52.13959
H         38.71921       58.66009       52.87359
H         36.41562       56.81320       53.56876
H         37.95775       56.28855       52.80128
H         37.69810       56.23990       55.49225
H         39.21982       57.01020       54.84715
N         34.93064       58.54163       55.04108
C         33.47799       58.66797       55.04247
C         32.97713       58.61570       53.60283
O         33.20223       57.60661       52.94925
C         32.83335       57.51593       55.84803
C         33.18276       57.58434       57.34264
C         32.61263       56.41406       58.08885
O         31.71594       56.61059       59.07387
O         32.97487       55.27948       57.82036
H         35.35457       57.71997       55.49369
H         33.20153       59.62377       55.53282
H         33.17098       56.54404       55.42304
H         31.72596       57.57333       55.75246
H         32.76112       58.52143       57.75526
H         34.28139       57.59019       57.50122
N         32.31222       59.64597       53.00459
C         31.99605       60.89821       53.65757
H         31.33824       60.71796       54.53294
H         32.92345       61.41341       53.98174
H         31.46499       61.56771       52.94807
H         32.01896       59.53553       52.02126
Ca        19.82747       62.05070       63.80852
O         21.71067       63.39114       61.32008
H         21.96021       62.57493       60.81829
H         22.31852       64.09190       60.97347
O         17.65887       64.80303       64.41903
H         16.74049       64.74001       64.05544
H         17.53081       65.01499       65.37739
O         20.10414       64.33230       66.25155
H         20.72259       64.48036       67.00954
H         20.61515       64.61806       65.45414
O         20.23910       65.72223       62.87548
H         20.01545       66.39732       63.56471
H         20.85016       66.19397       62.25576

Ca 1.0



