%chk=apoCaM-CA-Ng.loop1.water1.frame863.chk
%nprocshared=20
%mem=10GB
%nosave
#b3lyp/svp scf=(tight,noincore,xqc) Test 
#IOP(5/87=12) Density=Current Pop=(MK,readradii) iop(6/33=2) iop(6/42=6)

apoCaM-CA-Ng.loop1.water1.frame863 

   0  1 
C         44.33273       34.16182      109.11449
C         43.52167       33.67058      107.95753
O         43.09235       32.52534      107.97741
H         45.34069       34.46126      108.75850
H         43.82826       35.03488      109.57669
H         44.44584       33.36244      109.87790
N         43.28640       34.48991      106.89473
C         42.53486       34.06598      105.72043
C         43.44695       33.95627      104.50776
O         44.58815       34.39603      104.54439
C         41.27880       34.94218      105.51675
C         41.55251       36.42027      105.55416
O         42.29240       36.93774      104.73717
O         40.97779       37.18195      106.50646
H         43.68493       35.44186      106.90742
H         42.16405       33.02868      105.87036
H         40.57473       34.71964      106.34838
H         40.76949       34.67313      104.56620
N         43.02649       33.21114      103.44752
C         43.92290       32.70325      102.40829
C         44.14755       33.65130      101.24192
O         44.80530       33.23452      100.29727
C         43.46827       31.29362      101.94483
C         42.08163       31.21812      101.28030
C         41.74827       29.76257      100.92267
C         40.33102       29.63897      100.35036
N         40.01729       28.24668      100.02974
H         42.09299       32.78981      103.53996
H         44.92453       32.51592      102.85783
H         43.46591       30.63201      102.83972
H         44.22511       30.88679      101.23723
H         42.06044       31.84781      100.36509
H         41.29896       31.57983      101.97544
H         41.81153       29.13595      101.84030
H         42.48714       29.38372      100.18276
H         40.24326       30.25935       99.43166
H         39.59751       30.01244      101.10012
H         40.68467       27.88388       99.31093
H         40.07295       27.65658      100.89195
H         39.04534       28.19400       99.64814
N         43.71326       34.94605      101.24850
C         43.96707       35.86232      100.13444
C         45.13668       36.83668      100.44276
O         45.99675       36.41147      101.45390
C         42.65722       36.58870       99.75566
C         41.95853       37.44517      100.81101
O         40.86638       37.90599      100.52016
O         42.45838       37.73916      102.03957
H         43.23185       35.30147      102.08376
H         44.28472       35.26020       99.26252
H         41.93854       35.79313       99.46081
H         42.82701       37.22895       98.86551
N         45.82539       37.56559       99.35329
C         45.79430       36.96505       98.00984
C         46.58911       35.68359       97.86088
O         47.29487       35.27223       98.77114
H         46.80502       37.81426       99.62783
H         46.19536       37.69894       97.27888
H         44.74406       36.78728       97.71083
N         46.46693       34.98574       96.69639
C         47.14621       33.72985       96.39011
C         47.87209       33.85809       95.04807
O         47.71705       34.87320       94.38055
C         46.05885       32.62835       96.36288
C         46.55927       31.24486       96.06180
O         46.13635       30.64106       95.08826
O         47.46000       30.65542       96.87081
H         45.80644       35.34909       95.99058
H         47.89133       33.48819       97.18010
H         45.28537       32.90619       95.61279
H         45.56824       32.59473       97.36055
N         48.68012       32.86153       94.57618
C         49.30416       32.91010       93.26169
C         50.34430       34.00035       93.09546
O         50.80598       34.17458       91.97741
H         48.82894       32.01378       95.13890
H         48.50160       33.05460       92.50551
H         49.80066       31.93942       93.04578
N         50.77592       34.76140       94.14265
C         51.72945       35.85922       94.00174
C         51.05517       37.16258       94.41394
O         49.88393       37.14161       94.76587
C         53.04816       35.54194       94.75869
C         52.88338       35.30472       96.26428
O         53.69307       34.44064       94.16548
H         50.41099       34.57603       95.08636
H         52.01445       35.99786       92.93556
H         53.73361       36.40657       94.63854
H         53.12053       33.64020       94.29523
H         53.88221       35.12258       96.71606
H         52.42937       36.19064       96.75190
H         52.25361       34.41267       96.46147
N         51.72067       38.35078       94.32064
C         51.06823       39.64737       94.52662
C         51.08861       40.45860       93.22900
O         50.21550       41.29749       93.04906
C         51.72700       40.45601       95.69091
C         51.90841       39.57329       96.95306
C         50.88478       41.71296       96.01922
C         52.60942       40.29216       98.11121
H         52.71552       38.32862       94.06564
H         50.00240       39.48306       94.79786
H         52.74082       40.77913       95.36382
H         52.55101       38.70738       96.68735
H         50.92685       39.18732       97.30300
H         50.78089       42.38101       95.14328
H         49.87009       41.41825       96.36614
H         51.36106       42.33464       96.80153
H         52.78770       39.57489       98.93905
H         53.58778       40.70103       97.77910
H         51.98625       41.11357       98.51867
N         52.08999       40.31255       92.31152
C         52.25632       41.15537       91.13908
C         53.54016       41.94230       91.30833
O         54.49429       41.44909       91.89758
C         52.25931       40.31663       89.84264
C         50.88120       39.68707       89.60557
O         52.56885       41.14519       88.75046
H         52.83083       39.61663       92.45771
H         51.42705       41.89332       91.05547
H         53.03399       39.51919       89.93892
H         52.89789       40.55418       88.02307
H         50.89158       39.08972       88.66962
H         50.59585       39.02316       90.44755
H         50.11290       40.48486       89.49992
N         53.61112       43.20314       90.81436
C         54.73769       44.09992       91.02097
C         54.22201       45.44223       91.50564
O         54.68176       45.90721       92.53956
C         55.57718       44.21774       89.73381
C         56.80061       45.12228       89.94493
O         54.79794       44.69984       88.67223
H         52.81277       43.53679       90.25607
H         55.43050       43.68612       91.79123
H         55.93804       43.18804       89.49794
H         55.26394       44.43439       87.83689
H         57.42687       45.13211       89.02915
H         56.48835       46.16448       90.16925
H         57.42069       44.74563       90.78756
N         53.24294       46.10837       90.81914
C         52.73650       47.40892       91.22536
C         51.34676       47.28208       91.81205
O         50.64909       46.31588       91.53342
C         52.67894       48.36807       90.01827
C         54.01358       48.48796       89.26531
C         53.98641       49.57607       88.17536
C         52.91736       49.36156       87.08786
N         52.97557       50.42919       86.08864
H         52.81537       45.67682       89.98795
H         53.39636       47.84014       92.00919
H         52.36053       49.37054       90.37758
H         51.91260       47.98803       89.30665
H         54.27377       47.50868       88.80609
H         54.81338       48.75659       89.98775
H         54.98726       49.59943       87.69154
H         53.81257       50.56057       88.66048
H         51.90353       49.36689       87.54201
H         53.07598       48.37976       86.58936
H         52.82136       51.35764       86.54593
H         53.90419       50.42379       85.60795
H         52.22404       50.27781       85.37741
N         50.87886       48.26103       92.63544
C         49.53424       48.26709       93.19564
C         49.25774       47.01009       94.02768
O         48.34114       46.29147       93.65461
C         49.28691       49.59273       93.95041
C         47.85338       49.72346       94.47756
C         47.66673       51.04041       95.17578
O         47.32012       51.07086       96.47659
O         47.82639       52.08835       94.56958
H         51.50727       49.05099       92.85112
H         48.81950       48.27004       92.34065
H         49.47635       50.42712       93.23873
H         50.00035       49.72177       94.78173
H         47.64096       48.90084       95.19339
H         47.13411       49.65574       93.63296
N         49.97029       46.61833       95.12622
C         51.09097       47.32775       95.70185
H         51.89545       47.46543       94.95186
H         50.76762       48.29357       96.12763
H         51.50444       46.73918       96.54882
H         49.70356       45.73033       95.58079
Ca        44.51987       37.30308      102.86164
O         46.92517       36.61079      104.51310
H         47.26863       35.81921      104.02732
H         47.22325       36.47958      105.44772

Ca 1.0



