%chk=apoCaM-CA-Ng.loop3.water5.frame430.chk
%nprocshared=20
%mem=10GB
%nosave
#b3lyp/svp scf=(tight,noincore,xqc) Test 
#IOP(5/87=12) Density=Current Pop=(MK,readradii) iop(6/33=2) iop(6/42=6)

apoCaM-CA-Ng.loop3.water5.frame430 

   0  1 
C         83.63641       54.99280       88.45575
C         82.93393       53.66641       88.46372
O         81.71738       53.65253       88.37895
H         84.73656       54.87170       88.54371
H         83.40952       55.53320       87.51356
H         83.28201       55.60013       89.31618
N         83.64058       52.50484       88.57684
C         83.04787       51.17208       88.66823
C         82.21862       51.07024       89.94299
O         81.04477       50.72578       89.90374
C         82.27538       50.82169       87.37269
C         81.82381       49.38496       87.29800
O         82.09784       48.50978       88.28592
O         81.21026       49.00179       86.31519
H         84.66908       52.56220       88.63355
H         83.88767       50.44698       88.76192
H         82.94494       51.00306       86.50417
H         81.38592       51.47737       87.26768
N         82.80441       51.39357       91.12990
C         82.13514       51.37855       92.43176
C         81.02917       52.43120       92.57847
O         80.48710       52.52561       93.67198
C         83.18948       51.59527       93.55262
C         84.25182       50.47807       93.65327
C         83.65101       49.12583       94.07496
C         84.73911       48.06176       94.26511
N         84.15414       46.79382       94.70271
H         83.80178       51.65577       91.09956
H         81.65812       50.39170       92.59476
H         82.69055       51.65868       94.54458
H         83.70249       52.56666       93.37467
H         84.98466       50.78640       94.43082
H         84.80332       50.36699       92.69590
H         82.94060       48.75983       93.30577
H         83.10652       49.25754       95.03560
H         85.46958       48.40818       95.02954
H         85.28010       47.90664       93.30510
H         83.47896       46.44065       93.98610
H         84.91569       46.08854       94.82750
H         83.66107       46.92239       95.61647
N         80.60197       53.22453       91.55039
C         79.54154       54.21414       91.69470
C         78.20808       53.62838       91.24454
O         78.18197       52.61098       90.56494
C         79.94384       55.48521       90.91384
C         78.98015       56.62354       91.06601
O         78.75645       57.16204       92.27925
O         78.41995       57.08692       90.08611
H         80.99189       53.10681       90.61491
H         79.43131       54.46910       92.77174
H         80.04345       55.22855       89.83535
H         80.93699       55.83188       91.27397
N         77.04695       54.18275       91.69298
C         75.72282       53.64049       91.43191
C         75.34807       53.71443       89.97715
O         74.98863       52.69960       89.39760
H         77.10143       55.00433       92.31160
H         74.97923       54.24620       91.99352
H         75.65956       52.59398       91.80326
N         75.41877       54.90352       89.32249
C         75.06312       55.07827       87.91888
C         76.30486       55.18286       87.04593
O         76.17308       55.48340       85.86714
C         74.06440       56.25270       87.76518
C         74.57334       57.61072       88.17611
N         73.73554       58.67246       88.16886
O         75.73129       57.76144       88.52422
H         75.79350       55.71182       89.83954
H         74.52445       54.18325       87.53827
H         73.17835       56.02062       88.39537
H         73.72396       56.31850       86.70908
H         72.75263       58.56870       87.87860
H         74.06441       59.59950       88.47061
N         77.53271       54.81306       87.52368
C         78.71149       54.71557       86.68446
C         79.30363       56.04331       86.28966
O         80.26018       56.02438       85.52825
H         77.63212       54.47764       88.49086
H         78.46130       54.11998       85.77939
H         79.50097       54.16566       87.23517
N         78.81566       57.23100       86.75264
C         79.37890       58.51345       86.36079
C         78.43005       59.64334       86.84562
O         78.80484       60.08610       88.12308
C         80.82683       58.65823       86.91575
C         81.51605       59.95026       86.54986
C         81.78706       60.26163       85.20782
C         81.93085       60.83956       87.55707
C         82.46520       61.44061       84.87996
C         82.60673       62.01719       87.22723
C         82.87949       62.32019       85.88623
O         83.54257       63.44646       85.55458
H         77.99710       57.23129       87.37506
H         79.39043       58.52329       85.24891
H         81.47262       57.83655       86.54859
H         80.78452       58.55018       88.02250
H         81.48583       59.58641       84.41728
H         81.73998       60.61958       88.59998
H         82.67675       61.66670       83.84263
H         82.92410       62.68889       88.01522
H         83.85818       64.07311       86.22156
N         78.41548       60.77140       85.91352
C         77.29078       61.69162       86.15952
C         75.93700       61.02882       85.87588
O         75.11614       61.00098       86.77815
C         77.53219       63.00136       85.36605
C         78.96219       63.56707       85.62325
C         76.46142       64.05620       85.69203
C         79.30930       63.83445       87.09510
H         78.37100       60.43984       84.92292
H         77.29082       61.97852       87.23400
H         77.46623       62.78285       84.27693
H         79.08986       64.50874       85.04805
H         79.71405       62.84754       85.23241
H         75.45566       63.68601       85.41012
H         76.45258       64.30243       86.77436
H         76.65296       64.98560       85.11473
H         78.62069       64.57702       87.54487
H         79.28350       62.89920       87.69224
H         80.34368       64.23155       87.16184
N         75.65137       60.42789       84.68187
C         74.41787       59.66363       84.46313
C         73.16499       60.52333       84.44566
O         72.11152       60.02502       84.82252
C         74.49516       58.83285       83.17301
O         74.62155       59.66665       82.05451
H         76.36493       60.43552       83.93924
H         74.32434       58.92170       85.28839
H         73.57310       58.21453       83.07726
H         75.37666       58.15549       83.24374
H         74.77535       59.06325       81.28143
N         73.19239       61.80792       83.99022
C         72.03303       62.69069       83.92035
C         71.41168       62.88635       85.29262
O         70.21209       62.72938       85.45581
C         71.01710       62.19447       82.87598
H         74.09567       62.20161       83.68387
H         72.39060       63.68696       83.57938
H         71.50881       62.10344       81.88468
H         70.59511       61.20652       83.15490
H         70.17863       62.91798       82.78227
N         72.21751       63.21260       86.34151
C         71.72926       63.43645       87.69173
C         72.29645       64.73624       88.20895
O         73.50965       64.86392       88.26211
C         72.18195       62.28882       88.59766
H         73.23199       63.27025       86.18156
H         70.61812       63.45739       87.72253
H         73.28939       62.20684       88.61646
H         71.81625       62.45681       89.63415
H         71.75961       61.33024       88.22816
N         71.47285       65.73931       88.63369
C         71.96281       66.96989       89.24818
C         72.83880       67.73322       88.26886
O         73.99313       68.01655       88.56873
C         72.69510       66.64472       90.57781
C         71.80138       65.86117       91.55261
C         72.58660       65.40929       92.75023
O         72.69729       64.21757       92.99389
O         73.18016       66.31015       93.55536
H         70.45301       65.61693       88.55817
H         71.08816       67.61466       89.49143
H         73.03329       67.58592       91.06470
H         73.59918       66.03678       90.36597
H         71.39334       64.95755       91.04937
H         70.94850       66.49534       91.87602
N         72.34697       68.08782       87.05180
C         73.14827       68.79079       86.07361
H         74.04450       68.18695       85.81376
H         72.55672       68.96135       85.14942
H         73.46939       69.77343       86.47978
H         71.37620       67.83960       86.80476
Ca        77.08137       59.85705       89.58495
O         76.97221       62.78413       89.89230
H         75.99346       62.90152       89.98562
H         77.32123       62.84763       90.81669
O         79.76905       60.63355       91.13050
H         80.06113       61.36438       90.52945
H         80.54866       60.02512       91.17993
O         75.70609       57.64236       91.85668
H         74.77068       57.37757       91.67033
H         75.95673       57.11686       92.65704
O         76.91073       60.42931       93.08723
H         76.04912       60.60040       93.54432
H         77.54955       60.25077       93.82228
O         74.46599       60.38475       91.02746
H         73.67985       59.78553       90.97235
H         74.19839       61.08967       91.66828

Ca 1.0



