%chk=apoCaM-CA-Ng.loop3.water4.frame152.chk
%nprocshared=20
%mem=10GB
%nosave
#b3lyp/svp scf=(tight,noincore,xqc) Test 
#IOP(5/87=12) Density=Current Pop=(MK,readradii) iop(6/33=2) iop(6/42=6)

apoCaM-CA-Ng.loop3.water4.frame152 

   0  1 
C         50.52497       44.69404       85.05370
C         50.54680       43.87127       86.30787
O         49.56070       43.20469       86.57823
H         51.47652       45.24680       84.91160
H         50.36423       44.02938       84.17827
H         49.69334       45.42764       85.10611
N         51.64250       43.86367       87.12533
C         51.74441       43.07855       88.35587
C         50.75764       43.55247       89.43334
O         50.55100       42.83866       90.40400
C         51.62226       41.57111       88.02087
C         51.99905       40.68148       89.17218
O         53.23712       40.74658       89.69853
O         51.19386       39.88125       89.62067
H         52.46116       44.43045       86.85643
H         52.76617       43.22852       88.77046
H         52.31529       41.33118       87.18485
H         50.59149       41.33384       87.69821
N         50.17603       44.78736       89.36608
C         49.23831       45.32103       90.35474
C         47.90577       45.70050       89.70524
O         47.07961       46.31396       90.36665
C         49.88602       46.53956       91.05361
C         51.14314       46.18234       91.87833
C         50.82926       45.26666       93.07802
C         52.08261       44.96254       93.90785
N         51.75731       44.08804       95.03613
H         50.42369       45.41544       88.58708
H         48.98334       44.57323       91.13082
H         49.15596       47.01498       91.74473
H         50.16077       47.29124       90.28121
H         51.57192       47.13008       92.27157
H         51.90535       45.70791       91.22315
H         50.41872       44.29884       92.72973
H         50.07517       45.76272       93.72794
H         52.51891       45.91103       94.29209
H         52.83852       44.46089       93.26360
H         52.62905       43.88084       95.57472
H         51.07113       44.55812       95.67056
H         51.35376       43.18678       94.69027
N         47.60150       45.30109       88.43649
C         46.34285       45.56724       87.74489
C         45.14761       45.11699       88.58519
O         45.16744       44.02150       89.12757
C         46.39841       44.89507       86.35238
C         45.14813       45.12572       85.57184
O         45.12291       45.90277       84.48276
O         44.11551       44.59992       85.92478
H         48.29109       44.73640       87.93227
H         46.25361       46.66235       87.56898
H         46.57408       43.79953       86.43915
H         47.25121       45.33998       85.79499
N         44.09125       45.96619       88.77198
C         43.01237       45.73414       89.72326
C         42.15058       44.50223       89.51269
O         41.43715       44.16823       90.44797
H         44.09726       46.87433       88.28506
H         42.33971       46.62019       89.75518
H         43.48495       45.64514       90.72378
N         42.13010       43.78490       88.35188
C         41.37342       42.54299       88.19684
C         42.26496       41.35190       87.85416
O         41.73445       40.24975       87.82962
C         40.22293       42.68757       87.17229
C         40.67717       42.83493       85.73896
N         40.35643       41.89099       84.82014
O         41.32717       43.81167       85.40122
H         42.66006       44.13456       87.55889
H         40.88739       42.29210       89.16388
H         39.57834       43.54949       87.44886
H         39.59192       41.77448       87.24931
H         39.80309       41.06136       85.07941
H         40.66509       41.97868       83.84263
N         43.60069       41.46951       87.56836
C         44.44346       40.31376       87.28180
C         44.92059       40.24606       85.84118
O         45.50011       39.23026       85.48526
H         44.04932       42.39369       87.54998
H         43.88690       39.37430       87.47205
H         45.31632       40.31328       87.97254
N         44.74871       41.27551       84.96222
C         45.17053       41.24117       83.56262
C         44.05487       41.72766       82.65710
O         43.44161       42.74438       82.95037
C         46.40551       42.13608       83.32528
C         47.69937       41.41495       83.64519
C         48.57880       41.09633       82.59157
C         48.04192       41.03055       84.95173
C         49.76727       40.40848       82.83588
C         49.23258       40.33336       85.19241
C         50.10008       40.02340       84.13503
O         51.25211       39.35764       84.35277
H         44.33041       42.15160       85.29926
H         45.45251       40.21528       83.23375
H         46.31737       43.10985       83.84987
H         46.43652       42.36781       82.23660
H         48.34239       41.37093       81.57080
H         47.39519       41.26374       85.78488
H         50.42638       40.17050       82.01025
H         49.47953       40.03146       86.19984
H         51.52719       39.07716       85.23685
N         43.83765       41.10967       81.45863
C         42.88248       41.60462       80.47390
C         41.52409       41.03467       80.82832
O         40.59497       41.78576       81.07799
C         43.28789       41.20140       79.01514
C         44.76407       41.52550       78.64939
C         42.33355       41.84049       77.98503
C         45.14063       43.00728       78.66079
H         44.42613       40.30059       81.21068
H         42.86713       42.71817       80.50458
H         43.20063       40.09809       78.91770
H         44.96959       41.12763       77.63098
H         45.44827       40.99152       79.34023
H         42.59629       41.50906       76.95796
H         41.28417       41.55381       78.17365
H         42.37660       42.94827       78.02829
H         46.21294       43.10722       78.38784
H         44.55221       43.57686       77.91330
H         44.99534       43.44373       79.66842
N         41.35546       39.68205       80.87643
C         40.10433       39.03081       81.24675
C         38.96872       39.39330       80.31506
O         37.83399       39.41782       80.77140
C         40.27661       37.50756       81.25120
O         41.28146       37.15120       82.16153
H         42.16913       39.08601       80.66257
H         39.83390       39.35489       82.27762
H         40.55130       37.18143       80.21959
H         39.32394       37.01929       81.55106
H         41.60395       36.25392       81.88776
N         39.19904       39.72517       79.01010
C         38.15746       40.15901       78.09026
C         37.38972       41.31502       78.70317
O         36.18329       41.21396       78.88788
C         37.25133       38.98015       77.70565
H         40.16403       39.70657       78.65420
H         38.63665       40.50977       77.14847
H         36.49657       39.31233       76.96006
H         37.86066       38.17442       77.24382
H         36.72243       38.56648       78.58866
N         38.04591       42.45260       79.06688
C         37.35573       43.55891       79.72196
C         38.15431       44.84810       79.68818
O         39.31240       44.85096       79.29287
C         37.01566       43.18090       81.17383
H         39.05109       42.52268       78.84901
H         36.42843       43.76963       79.14531
H         36.46582       43.99909       81.68327
H         36.38588       42.26884       81.21411
H         37.94848       42.97533       81.74225
N         37.53031       46.01893       80.01542
C         38.13686       47.34210       79.90829
C         38.72616       47.52086       78.51323
O         39.89568       47.86194       78.38121
C         39.20984       47.55542       80.99238
C         38.70936       47.36309       82.43464
C         39.90308       47.42216       83.34342
O         39.97859       48.22579       84.25859
O         40.92206       46.58954       83.06243
H         36.53427       45.98283       80.28184
H         37.33768       48.10050       80.06254
H         39.63400       48.58040       80.90146
H         40.02573       46.82776       80.79401
H         38.25304       46.35560       82.54167
H         37.94808       48.12876       82.70180
N         37.98156       47.22875       77.41407
C         38.54451       47.28122       76.08247
H         39.42108       46.59847       76.01827
H         37.79088       46.95165       75.33761
H         38.86714       48.31622       75.84568
H         37.00633       46.91327       77.52641
Ca        42.99499       46.21317       83.82153
O         43.37681       48.88743       82.83305
H         44.04212       48.28618       82.41233
H         43.77083       49.11396       83.71284
O         42.38008       47.51274       86.40856
H         41.85175       48.34385       86.31445
H         43.28564       47.75964       86.09224
O         43.88993       45.42921       81.19579
H         44.55562       46.08217       80.86348
H         43.07327       45.61131       80.66647
O         40.32858       44.06880       82.51438
H         41.30642       44.04679       82.36614
H         39.98023       44.55515       81.73016

Ca 1.0



