%chk=apoCaM-CA-Ng.loop4.water6.frame941.chk
%nprocshared=20
%mem=10GB
%nosave
#b3lyp/svp scf=(tight,noincore,xqc) Test 
#IOP(5/87=12) Density=Current Pop=(MK,readradii) iop(6/33=2) iop(6/42=6)

apoCaM-CA-Ng.loop4.water6.frame941 

   -3  1 
C         -3.20141      116.29431       81.30949
C         -4.20981      117.39934       81.22323
O         -5.15003      117.26917       80.45485
H         -2.39698      116.53330       82.03574
H         -3.70892      115.36197       81.63507
H         -2.74506      116.12714       80.31280
N         -4.08045      118.52212       81.98921
C         -5.03320      119.63023       81.99384
C         -6.40349      119.18605       82.50295
O         -7.39302      119.82513       82.17399
C         -5.15292      120.27049       80.59554
C         -3.82576      120.59079       79.97028
O         -3.49057      119.95823       78.82902
O         -3.07577      121.41733       80.46446
H         -3.26302      118.60349       82.61303
H         -4.65240      120.41421       82.68622
H         -5.76579      121.19664       80.65262
H         -5.68395      119.56877       79.91964
N         -6.52678      118.13026       83.36068
C         -7.80386      117.62761       83.86194
C         -7.90153      118.02854       85.32728
O         -7.07654      117.55917       86.09917
C         -7.85751      116.07132       83.68343
C         -7.78232      115.68752       82.18417
C         -9.10891      115.45072       84.33423
C         -7.62149      114.18731       81.92992
H         -5.67121      117.67099       83.70780
H         -8.64152      118.06439       83.28937
H         -6.96741      115.64949       84.20236
H         -6.90172      116.17469       81.73251
H         -8.68910      116.04869       81.65551
H        -10.02806      115.76924       83.80509
H         -9.06255      114.34421       84.30563
H         -9.18102      115.72780       85.40605
H         -8.49918      113.61288       82.28642
H         -7.52774      114.00900       80.83764
H         -6.70286      113.81133       82.42836
N         -8.82934      118.90559       85.82378
C         -9.85599      119.60720       85.04582
C        -10.20970      120.94952       85.69211
O         -9.85980      121.18001       86.84174
C        -11.06870      118.66911       84.88441
C        -12.24159      119.24224       84.15687
O        -13.44102      119.25460       84.76261
O        -12.13519      119.64178       83.00957
H         -8.76470      119.10383       86.83379
H         -9.42632      119.89465       84.06374
H        -11.40847      118.35042       85.89421
H        -10.75288      117.77000       84.33216
N        -10.79368      121.93904       84.95021
C        -10.96875      123.29734       85.44757
C        -12.36040      123.86755       85.28433
O        -12.51934      125.02827       85.63611
H        -11.01338      121.76173       83.95897
H        -10.28607      123.95321       84.86494
H        -10.68078      123.38446       86.51663
N        -13.41168      123.16361       84.76491
C        -14.71144      123.80429       84.52275
C        -15.90288      122.86576       84.26482
O        -16.99412      123.39633       84.10509
C        -14.56564      124.86020       83.38893
C        -13.92322      124.32013       82.13564
O        -14.45201      123.43542       81.48863
O        -12.74950      124.82931       81.71436
H        -13.25618      122.18416       84.51037
H        -15.01658      124.33697       85.45116
H        -13.92087      125.68760       83.74793
H        -15.55038      125.31479       83.14734
N        -15.83081      121.50013       84.26327
C        -17.00071      120.64102       84.09287
C        -17.63833      120.71728       82.71486
O        -18.65141      120.06745       82.50470
H        -14.94535      121.02896       84.43943
H        -17.75097      120.90343       84.86902
H        -16.69986      119.58212       84.25550
N        -17.08273      121.46102       81.72073
C        -17.57052      121.57922       80.35597
C        -17.52779      120.24612       79.62960
O        -18.42804      119.94333       78.85867
C        -18.93583      122.30033       80.27230
C        -18.87712      123.69679       80.91534
C        -20.14264      124.47630       80.66160
N        -20.90342      124.92853       81.68553
O        -20.47470      124.72101       79.51102
H        -16.21495      121.96227       81.91302
H        -16.83661      122.21879       79.81529
H        -19.73464      121.69907       80.75915
H        -19.19295      122.41508       79.19650
H        -18.03379      124.27283       80.47794
H        -18.69700      123.59192       82.00677
H        -20.64194      124.74444       82.66464
H        -21.75825      125.47353       81.49654
N        -16.47365      119.40262       79.82833
C        -16.28414      118.15184       79.09728
C        -14.87551      118.03673       78.49825
O        -14.62953      117.05000       77.81673
C        -16.57206      116.93200       80.02529
C        -15.62902      116.86207       81.24033
C        -18.03093      116.93381       80.50477
H        -15.79699      119.64626       80.56444
H        -17.00142      118.09866       78.24870
H        -16.42869      116.00310       79.42920
H        -15.75250      117.74557       81.90120
H        -15.84688      115.95151       81.83848
H        -14.57210      116.80236       80.91400
H        -18.24315      117.82315       81.13255
H        -18.72180      116.93498       79.63526
H        -18.23807      116.02386       81.10786
N        -13.87940      118.93604       78.77242
C        -12.47472      118.69230       78.45676
C        -11.78242      119.96915       77.95465
O        -12.40311      121.02234       77.89662
C        -11.85937      118.13868       79.77046
C        -10.39727      117.79415       79.74184
N         -9.53487      118.42438       80.57140
O         -9.98576      116.93821       78.97232
H        -14.06471      119.73234       79.39513
H        -12.37374      117.91471       77.66790
H        -12.40009      117.20684       80.04407
H        -12.04366      118.88069       80.57310
H         -9.86696      119.13971       81.23572
H         -8.53125      118.19666       80.54971
N        -10.46568      119.93064       77.60109
C         -9.64605      121.06928       77.20237
C         -8.84415      120.69950       75.96264
O         -8.23821      119.63491       75.95753
C         -8.67479      121.38665       78.35343
C         -7.68085      122.45239       77.95600
C         -8.09378      123.75247       77.61669
C         -6.31952      122.12930       77.89137
C         -7.15180      124.70532       77.21186
C         -5.38210      123.08050       77.49912
C         -5.79082      124.36928       77.15039
O         -4.87067      125.27030       76.75348
H         -9.97423      119.03250       77.66346
H        -10.25959      121.97938       77.02151
H         -8.13545      120.45252       78.62882
H         -9.24392      121.71596       79.25036
H         -9.14069      124.02555       77.65389
H         -5.98344      121.13186       78.12842
H         -7.47982      125.70110       76.94255
H         -4.33933      122.80470       77.45923
H         -5.11005      126.16918       76.48841
N         -8.75101      121.54721       74.89635
C         -8.04460      121.18868       73.67161
C         -6.87442      122.14143       73.38975
O         -7.12165      123.20510       72.83855
C         -9.07737      121.19106       72.52855
C         -8.51493      120.72050       71.18359
C         -9.60039      120.72711       70.14548
O        -10.16137      121.77020       69.84745
O         -9.96599      119.57983       69.54335
H         -9.22051      122.46494       74.94145
H         -7.67303      120.15521       73.74393
H         -9.49870      122.21605       72.42086
H         -9.90842      120.50848       72.81505
H         -8.11588      119.68933       71.29519
H         -7.69185      121.38599       70.84696
N         -5.57098      121.88383       73.73701
C         -5.13137      120.75787       74.55874
C         -5.29740      119.41232       73.87667
O         -5.55703      119.36200       72.68133
C         -3.67399      120.97567       75.05089
C         -2.58001      120.70864       74.00210
C         -1.20623      121.21689       74.39977
O         -0.63536      120.95804       75.59923
O         -0.58007      121.89241       73.59841
H         -4.87183      122.60568       73.49761
H         -5.77555      120.77878       75.46260
H         -3.49966      120.28247       75.89142
H         -3.58892      122.01653       75.42504
H         -2.85003      121.18646       73.03555
H         -2.52481      119.61110       73.83458
N         -5.19498      118.26724       74.60395
C         -5.41163      116.96317       74.01722
H         -6.43535      116.91003       73.58668
H         -4.66339      116.77307       73.21980
H         -5.31818      116.17704       74.79626
H         -4.99169      118.32283       75.61359
Ca        -1.72875      120.40375       77.49695
O          0.23737      120.26195       80.76062
H          0.12827      120.03903       81.71901
H          1.21601      120.34906       80.63720
O         -0.44349      123.28423       79.86370
H          0.52235      123.13794       80.02525
H         -0.50525      124.22820       79.57117
O          1.36529      122.59013       77.34370
H          1.71707      122.33316       76.45466
H          1.24011      123.57061       77.28797
O         -1.34691      117.69890       78.55887
H         -0.64014      117.07745       78.25288
H         -2.17316      117.37331       78.12050
O          1.34590      119.56593       77.88110
H          2.23383      119.63708       78.31339
H          1.38010      118.71313       77.37979
O         -1.76974      123.50129       77.09373
H         -2.35946      124.28126       77.24482
H         -1.44328      123.61443       76.16652

Ca 1.0



