%chk=apoCaM-CA-Ng.loop2.water4.frame1318.chk
%nprocshared=20
%mem=10GB
%nosave
#b3lyp/svp scf=(tight,noincore,xqc) Test 
#IOP(5/87=12) Density=Current Pop=(MK,readradii) iop(6/33=2) iop(6/42=6)

apoCaM-CA-Ng.loop2.water4.frame1318 

   -2  1 
C         46.08015       20.28531       87.38796
C         45.45295       21.64717       87.52096
O         46.16868       22.60601       87.26850
H         46.94886       20.22131       88.07503
H         45.41990       19.42984       87.59307
H         46.44638       20.17043       86.34518
N         44.15293       21.88580       87.86714
C         43.11532       20.90210       88.19977
C         42.46589       21.18758       89.56777
O         41.57702       20.43938       89.94934
C         42.07250       20.88954       87.04277
C         41.39140       22.21896       86.85146
O         40.65744       22.52243       85.77007
O         41.52835       23.08987       87.68377
H         43.87278       22.87770       87.84990
H         43.52738       19.88213       88.25943
H         41.30466       20.10000       87.19314
H         42.62831       20.65151       86.11026
N         42.85113       22.24424       90.35282
C         42.26314       22.58301       91.65051
C         41.66714       23.99981       91.65725
O         41.30684       24.48393       92.72114
C         43.36484       22.47598       92.71083
H         43.61601       22.85694       90.03865
H         41.45981       21.86881       91.93572
H         44.18737       23.19141       92.49545
H         42.95646       22.69181       93.72153
H         43.77957       21.44531       92.72148
N         41.50183       24.70480       90.50129
C         41.01381       26.07995       90.39733
C         39.60872       26.11197       89.81554
O         39.04552       25.05918       89.54652
C         42.00273       26.87498       89.49834
C         42.00997       26.33783       88.08089
O         40.91897       26.46933       87.28980
O         42.98557       25.73334       87.66473
H         41.72949       24.24185       89.62414
H         40.97205       26.55380       91.40225
H         43.01611       26.77565       89.94734
H         41.75940       27.95708       89.46939
N         38.99996       27.30646       89.55674
C         37.69107       27.42061       88.93205
C         37.79184       28.06444       87.56414
O         38.87962       28.42642       87.13789
H         39.49739       28.18204       89.77703
H         37.02714       28.02367       89.58727
H         37.22008       26.42840       88.80608
N         36.66756       28.23218       86.81312
C         36.65887       28.84337       85.48631
C         35.82796       30.10619       85.50636
O         34.73701       30.09567       86.06244
C         36.06585       27.89367       84.42524
C         36.90288       26.66551       84.18059
N         36.34930       25.43318       84.23350
O         38.08271       26.78532       83.88459
H         35.76619       27.91917       87.20720
H         37.68554       29.10686       85.14845
H         36.02814       28.44350       83.45916
H         35.02403       27.61230       84.69614
H         35.35002       25.30774       84.45045
H         36.91834       24.59915       84.03505
N         36.23816       31.21169       84.81811
C         35.41286       32.40346       84.72183
C         35.45318       33.21889       85.99702
O         36.27349       32.92827       86.85739
H         37.11215       31.17367       84.27207
H         34.38530       32.08160       84.45579
H         35.78322       33.05482       83.90647
N         34.60391       34.26252       86.22898
C         33.46295       34.60021       85.37561
C         33.82341       35.39324       84.12036
O         32.93261       35.58474       83.30491
C         32.37478       35.33881       86.19486
C         31.84132       34.45884       87.33481
O         32.88061       36.53356       86.73328
H         34.69362       34.73672       87.14144
H         32.98313       33.65530       85.04384
H         31.49674       35.55384       85.54081
H         32.79955       37.22680       86.02806
H         31.41500       33.51719       86.92580
H         32.64082       34.19609       88.05881
H         31.03986       34.99489       87.88432
N         35.07756       35.87213       83.87348
C         35.44790       36.52189       82.61173
C         35.93509       35.42123       81.67314
O         36.77307       34.64435       82.11109
C         36.54981       37.60607       82.84836
C         36.05949       38.67780       83.86048
C         36.94613       38.27193       81.51354
C         37.10562       39.74983       84.18779
H         35.82864       35.67732       84.55233
H         34.57085       37.04975       82.18130
H         37.45107       37.10555       83.26761
H         35.79442       38.18061       84.81737
H         35.14802       39.18051       83.46864
H         37.80020       38.96481       81.64333
H         37.27178       37.51452       80.77379
H         36.09222       38.84289       81.09120
H         36.69779       40.44341       84.95294
H         38.02942       39.28150       84.58796
H         37.35801       40.36152       83.29770
N         35.50121       35.23895       80.38716
C         34.71397       36.19886       79.60758
C         35.13090       36.18498       78.13371
O         35.79301       35.25777       77.69294
C         33.19703       35.94927       79.74071
C         32.78719       34.59177       79.23180
O         33.26201       33.47470       79.81555
O         32.01013       34.49658       78.29506
H         35.92169       34.44176       79.88718
H         34.94280       37.21720       79.96963
H         32.65237       36.73433       79.16951
H         32.88492       36.03652       80.79878
N         34.78369       37.22104       77.31573
C         35.07704       37.24972       75.88423
C         36.12518       38.31116       75.58925
O         35.92772       39.43868       76.01516
C         33.76096       37.51164       75.11400
C         33.92350       37.39391       73.61045
C         33.34786       36.30535       72.93100
C         34.64523       38.35066       72.86955
C         33.51112       36.16369       71.54997
C         34.80630       38.20375       71.48824
C         34.24397       37.10901       70.82989
H         34.28946       38.02848       77.72484
H         35.43534       36.26136       75.54835
H         33.32580       38.50224       75.37136
H         33.03884       36.73854       75.45791
H         32.78302       35.55600       73.47089
H         35.08846       39.21042       73.35172
H         33.07256       35.31678       71.03882
H         35.37071       38.93808       70.92778
H         34.37384       36.99452       69.76152
N         37.23544       38.06513       74.81080
C         37.52265       36.83147       74.08550
C         37.92304       35.67475       74.97062
O         37.33252       34.60999       74.87331
C         38.68120       37.20610       73.14430
C         38.45061       38.69074       72.93795
C         38.12013       39.12211       74.36081
H         36.64276       36.57694       73.45543
H         39.65910       37.12306       73.66903
H         38.73786       36.58958       72.22147
H         39.30650       39.22900       72.47868
H         37.54893       38.82939       72.30248
H         39.04727       39.09295       74.97724
H         37.67969       40.14064       74.39759
N         38.95150       35.82382       75.85009
C         39.47179       34.73562       76.66069
C         40.49398       33.96751       75.83259
O         41.46868       34.57641       75.41351
C         40.15163       35.30273       77.92457
C         39.16879       36.09822       78.79842
C         39.87657       36.68077       79.98654
O         39.92281       37.89098       80.14029
O         40.46438       35.87267       80.88882
H         39.41368       36.74302       75.91568
H         38.63482       34.09468       77.00904
H         40.98878       35.97284       77.62459
H         40.57142       34.46266       78.52101
H         38.34756       35.43686       79.14859
H         38.71950       36.92560       78.20633
N         40.37566       32.64436       75.52893
C         39.27176       31.81331       75.95050
H         38.31979       32.20472       75.53662
H         39.41631       30.77941       75.57036
H         39.22263       31.77721       77.05874
H         41.11575       32.20293       74.96033
Ca        40.23243       24.73582       85.99267
O         40.98008       25.05277       82.99095
H         40.90383       24.07762       83.14527
H         41.83417       25.30577       83.42362
O         36.80177       24.53688       86.97042
H         35.85320       24.43512       86.70811
H         36.80094       24.35276       87.94125
O         38.26095       22.46679       84.28718
H         38.85213       22.28167       83.51488
H         37.90895       21.58128       84.55403
O         38.07934       21.96290       88.21003
H         38.94959       22.23460       88.59531
H         37.41471       22.22444       88.89595

Ca 1.0



