%chk=apoCaM-CA-Ng.loop2.water4.frame736.chk
%nprocshared=20
%mem=10GB
%nosave
#b3lyp/svp scf=(tight,noincore,xqc) Test 
#IOP(5/87=12) Density=Current Pop=(MK,readradii) iop(6/33=2) iop(6/42=6)

apoCaM-CA-Ng.loop2.water4.frame736 

   -2  1 
C         91.30337       28.67233       -3.77675
C         92.03910       29.57791       -4.73054
O         91.37361       30.33464       -5.41939
H         90.28570       28.45478       -4.17198
H         91.83273       27.70755       -3.64860
H         91.17696       29.16413       -2.78805
N         93.40256       29.51046       -4.86839
C         94.18432       30.33996       -5.79726
C         94.47853       31.71148       -5.18379
O         95.62226       32.06503       -4.92463
C         95.48522       29.61653       -6.19820
C         96.19273       30.36683       -7.29929
O         95.63787       30.55169       -8.37189
O         97.43156       30.85463       -7.10100
H         93.89729       28.78036       -4.33327
H         93.60349       30.46250       -6.73912
H         95.24251       28.59799       -6.56978
H         96.14864       29.51293       -5.31150
N         93.44472       32.54967       -4.96751
C         93.49591       33.84554       -4.32101
C         92.27678       33.94697       -3.41306
O         91.24599       33.37737       -3.74985
C         93.42069       34.92463       -5.40664
H         92.53538       32.25961       -5.32597
H         94.44026       33.98648       -3.75305
H         94.38405       34.97363       -5.96147
H         92.61449       34.68388       -6.13092
H         93.21917       35.92678       -4.97388
N         92.23194       34.69940       -2.28679
C         93.32398       35.49483       -1.73981
C         94.49083       34.65243       -1.21177
O         94.39776       33.43989       -1.13701
C         92.78144       36.40087       -0.59388
C         92.05305       35.67905        0.51851
O         90.90440       35.29200        0.36156
O         92.62200       35.56440        1.73211
H         91.31027       34.73470       -1.83330
H         93.70671       36.16799       -2.53553
H         92.08010       37.15584       -1.01036
H         93.63055       36.95253       -0.14593
N         95.62975       35.27328       -0.79257
C         96.58355       34.68069        0.13714
C         97.89928       34.23655       -0.45793
O         97.97932       34.06016       -1.66507
H         95.69302       36.29424       -0.91964
H         96.13838       33.84977        0.72938
H         96.80523       35.50041        0.84105
N         99.00512       34.01101        0.32354
C         99.10232       34.27119        1.76631
C         99.39181       32.98117        2.53358
O        100.10025       33.01106        3.53301
C        100.24266       35.29454        1.99330
C        100.11015       36.56171        1.18158
N        101.15473       36.98973        0.43315
O         99.08233       37.22185        1.22546
H         99.86309       33.67281       -0.14107
H         98.17635       34.69700        2.19601
H        101.20620       34.80940        1.72416
H        100.30201       35.57473        3.06558
H        102.03566       36.45449        0.41109
H        101.10452       37.87417       -0.09264
N         98.94126       31.78813        2.05351
C         99.36910       30.49803        2.57452
C         98.81802       30.14885        3.94315
O         99.43904       29.35557        4.63840
H         98.35007       31.78643        1.21135
H        100.48056       30.47787        2.58831
H         99.04659       29.70583        1.86561
N         97.64626       30.69144        4.38160
C         97.02096       30.40885        5.67586
C         95.50723       30.25741        5.51014
O         95.00124       30.44572        4.41262
C         97.36553       31.52535        6.70052
C         98.87078       31.55732        6.99058
O         96.95162       32.78170        6.22252
H         97.16224       31.34336        3.75214
H         97.39994       29.44103        6.08309
H         96.83675       31.28557        7.65161
H         96.78420       33.35863        7.01352
H         99.09710       32.20026        7.86841
H         99.24373       30.53239        7.20753
H         99.41057       31.96502        6.11262
N         94.71841       29.91156        6.57029
C         93.27339       29.69008        6.47294
C         92.47649       30.73423        7.27630
O         92.86605       31.13018        8.36321
C         92.95247       28.22773        6.93469
C         91.44678       27.98470        7.23295
C         93.46766       27.22344        5.88972
C         91.10394       26.57163        7.69200
H         95.16368       29.75119        7.48747
H         92.94025       29.77468        5.41544
H         93.49733       28.05711        7.88539
H         90.85218       28.15412        6.32740
H         91.13048       28.68044        8.04270
H         94.51566       27.44518        5.60726
H         93.44469       26.19810        6.31135
H         92.84084       27.25258        4.97106
H         91.15062       25.87924        6.82586
H         91.78259       26.24300        8.49954
H         90.07390       26.53435        8.09480
N         91.28989       31.16691        6.75896
C         90.25713       31.99983        7.36069
C         88.85029       31.37606        7.24489
O         87.89769       31.99956        7.69453
C         90.36017       33.41091        6.76516
C         90.44706       33.48823        5.26891
O         91.55195       33.59696        4.75803
O         89.37670       33.69529        4.48558
H         91.09673       30.89900        5.81675
H         90.43820       32.10835        8.44602
H         91.34983       33.75932        7.12956
H         89.59347       34.10096        7.16703
N         88.66682       30.11598        6.74162
C         87.43543       29.34593        6.76921
C         87.09040       28.88955        5.34662
O         86.96832       27.69578        5.10953
C         87.65658       28.17608        7.77589
C         86.40219       27.54096        8.32727
C         85.45970       28.32366        9.02228
C         86.18130       26.15802        8.20356
C         84.30246       27.74002        9.54711
C         85.01834       25.58067        8.72533
C         84.07693       26.37223        9.38931
H         89.46088       29.61404        6.38563
H         86.60437       29.97109        7.14785
H         88.19733       28.57020        8.66494
H         88.30880       27.41883        7.29890
H         85.61961       29.38537        9.16238
H         86.90862       25.52336        7.71253
H         83.57741       28.34526       10.07715
H         84.84820       24.51784        8.61631
H         83.17551       25.92745        9.79056
N         86.89489       29.80083        4.33864
C         86.35458       29.46688        3.01697
C         87.23968       28.57933        2.12759
O         86.78594       28.09142        1.10236
C         86.09688       30.84849        2.38210
C         85.93503       31.76134        3.59124
C         86.98015       31.22860        4.53468
H         85.40388       28.93420        3.21398
H         87.01070       31.21231        1.85983
H         85.23273       30.86971        1.68699
H         86.03831       32.84985        3.39166
H         84.95141       31.56694        4.07171
H         88.00403       31.55989        4.25322
H         86.71733       31.56616        5.55248
N         88.52660       28.35414        2.48184
C         89.48234       27.46728        1.82706
C         89.09536       26.04776        2.17557
O         89.04391       25.19182        1.30533
C         90.94296       27.65832        2.34480
C         91.54310       29.08044        2.28580
C         90.89568       29.97027        3.26039
O         90.57489       31.23602        2.96550
O         90.60697       29.49915        4.33699
H         88.80353       28.82155        3.32396
H         89.51910       27.66195        0.73296
H         91.60683       27.01041        1.73545
H         91.02966       27.29699        3.39580
H         91.53748       29.52173        1.27039
H         92.58774       29.01006        2.65755
N         88.85657       25.73557        3.48419
C         88.53784       24.40755        3.94700
H         87.54720       24.08332        3.56445
H         89.32966       23.70576        3.61867
H         88.50645       24.40695        5.05956
H         88.92111       26.47597        4.19848
Ca        90.07154       33.32448        2.40472
O         87.78229       34.40678        1.71564
H         87.29063       35.08893        2.23461
H         87.31722       34.33949        0.84664
O         89.67334       32.26258       -0.09491
H         90.07414       31.76491       -0.84921
H         88.73807       32.43883       -0.36493
O         90.22408       36.24398        3.18495
H         90.52703       36.97878        2.59523
H         90.31110       36.60767        4.10059
O         92.42297       32.62458        0.87219
H         92.92875       32.23248        0.12297
H         93.01618       32.51134        1.65479

Ca 1.0



