%chk=apoCaM-CA-Ng.loop4.water6.frame1033.chk
%nprocshared=20
%mem=10GB
%nosave
#b3lyp/svp scf=(tight,noincore,xqc) Test 
#IOP(5/87=12) Density=Current Pop=(MK,readradii) iop(6/33=2) iop(6/42=6)

apoCaM-CA-Ng.loop4.water6.frame1033 

   -3  1 
C         20.41732       63.02973       42.81876
C         21.87719       62.85332       42.47681
O         22.57950       62.32145       43.32079
H         19.77678       63.43764       42.02164
H         19.99596       62.03211       43.06393
H         20.32164       63.68604       43.70764
N         22.44848       63.20704       41.28792
C         21.78310       63.88784       40.18470
C         21.58845       62.89887       39.06489
O         20.45524       62.65695       38.67540
C         22.60088       65.10671       39.70824
C         22.89230       66.04909       40.83685
O         22.45650       67.18831       40.82258
O         23.66088       65.63907       41.86281
H         23.44228       62.96101       41.15433
H         20.79805       64.28602       40.47786
H         22.03109       65.63379       38.91100
H         23.56959       64.79156       39.27377
N         22.66565       62.27946       38.50883
C         22.57538       61.30978       37.42418
C         23.19604       61.85172       36.14418
O         23.10631       61.16723       35.13351
C         23.26191       59.96757       37.82511
C         24.76466       60.17373       38.16886
C         22.50423       59.29941       38.98469
C         25.56210       58.87663       38.27336
H         23.60098       62.52672       38.85949
H         21.50950       61.10526       37.18011
H         23.19204       59.28981       36.94532
H         24.87127       60.73054       39.12376
H         25.24680       60.76530       37.36284
H         22.54024       59.92948       39.89905
H         21.44172       59.14181       38.70203
H         22.93207       58.30427       39.22035
H         26.62355       59.12209       38.49352
H         25.18534       58.22586       39.08612
H         25.52216       58.33107       37.30691
N         23.83427       63.05870       36.09914
C         24.46880       63.58608       34.89186
C         24.98948       65.00010       35.12855
O         25.19383       65.38839       36.27238
C         25.64808       62.66994       34.47268
C         26.30424       63.09591       33.19249
O         25.66983       63.10373       32.14982
O         27.60300       63.45179       33.18680
H         23.85754       63.63002       36.95255
H         23.68803       63.62795       34.09984
H         25.31443       61.62391       34.33007
H         26.40136       62.66680       35.28935
N         25.20502       65.84858       34.08379
C         25.71577       67.19207       34.28950
C         27.20254       67.16195       34.58271
O         27.64291       66.39454       35.42741
H         24.95118       65.55549       33.12816
H         25.14992       67.67834       35.11335
H         25.54020       67.79757       33.37396
N         28.04032       68.00975       33.92189
C         29.49174       67.99923       34.10524
C         30.10545       66.76432       33.43654
O         29.44936       66.19155       32.57679
C         30.13065       69.31060       33.57183
C         29.93906       69.57117       32.09478
O         30.90919       69.62253       31.35673
O         28.71756       69.82031       31.58498
H         27.60854       68.70727       33.30464
H         29.68485       67.96978       35.19981
H         31.21588       69.29441       33.77668
H         29.71440       70.17312       34.13520
N         31.33537       66.25302       33.75787
C         32.17651       66.75652       34.84027
C         33.44614       65.93084       35.07300
O         33.65950       64.96781       34.35020
H         31.63952       65.42030       33.23086
H         31.56333       66.69892       35.75680
H         32.46951       67.79608       34.63619
N         34.34320       66.18194       36.08590
C         34.30275       67.27487       37.06121
C         32.95729       67.34424       37.73198
O         32.24776       68.33121       37.58634
C         34.76720       68.61219       36.44992
C         36.25808       68.55286       36.08207
C         36.76637       69.91435       35.69090
N         37.70083       70.54117       36.44596
O         36.32510       70.46242       34.69226
H         35.11910       65.51026       36.19879
H         35.03150       67.05670       37.87450
H         34.65636       69.39438       37.23396
H         34.15547       68.91067       35.57517
H         36.43697       67.82705       35.25971
H         36.82585       68.20472       36.97313
H         38.07503       70.10187       37.30058
H         38.04354       71.47753       36.18666
N         32.52178       66.26572       38.43594
C         31.14000       66.11753       38.87438
C         30.73089       64.65198       38.86435
O         31.57036       63.76177       38.88305
C         30.84389       66.76384       40.26294
C         30.97411       68.29101       40.25429
C         31.73347       66.17956       41.36980
H         33.15722       65.45465       38.48109
H         30.49316       66.58845       38.09931
H         29.78321       66.54429       40.51853
H         32.02038       68.60704       40.06658
H         30.30432       68.72662       39.48256
H         30.66791       68.70232       41.24030
H         31.59736       65.08445       41.43852
H         32.80483       66.39594       41.17006
H         31.46133       66.61454       42.35528
N         29.41169       64.34164       38.78782
C         28.91467       62.97126       38.78624
C         29.07742       62.29595       40.14798
O         28.84813       61.09785       40.24273
C         27.42130       62.93378       38.38390
C         26.51701       63.62983       39.38124
N         26.28905       64.96424       39.31894
O         25.97866       62.97064       40.25724
H         28.75848       65.12428       38.68922
H         29.48630       62.40442       38.01761
H         27.12293       61.86704       38.31755
H         27.27157       63.37099       37.37457
H         26.68657       65.54696       38.57010
H         25.68995       65.42455       40.01781
N         29.35280       63.03100       41.26212
C         29.32595       62.49086       42.62177
C         29.08851       63.60875       43.62990
O         29.00665       64.76618       43.23876
C         30.58486       61.64314       42.90616
C         31.85486       62.44880       42.80603
C         32.29472       63.23133       43.88682
C         32.60922       62.42559       41.62270
C         33.46815       63.98406       43.78068
C         33.77405       63.18900       41.51302
C         34.20736       63.97213       42.59269
O         35.32623       64.71781       42.49802
H         29.45955       64.04373       41.14057
H         28.43062       61.83574       42.71483
H         30.61236       60.81891       42.16184
H         30.53452       61.14618       43.89944
H         31.73524       63.25286       44.81303
H         32.28380       61.83162       40.77796
H         33.80003       64.58105       44.62095
H         34.33433       63.17458       40.58705
H         35.85506       64.74911       41.68798
N         28.89186       63.33119       44.94758
C         28.46695       64.35627       45.89170
C         27.11992       63.92870       46.42482
O         27.05252       62.95186       47.15976
C         29.54541       64.56964       46.96002
C         29.24786       65.78423       47.85162
C         30.36688       66.08287       48.81530
O         31.37393       65.39180       48.85508
O         30.26372       67.14504       49.63541
H         28.97608       62.35706       45.27778
H         28.34382       65.32596       45.36811
H         30.49963       64.77334       46.42467
H         29.67511       63.64880       47.56991
H         28.31074       65.61346       48.42202
H         29.11416       66.68003       47.20581
N         25.98067       64.52246       45.95813
C         24.65167       63.98983       46.23603
C         24.49667       62.56594       45.69389
O         23.52444       61.91876       46.05801
C         23.54386       64.89290       45.63148
C         23.48733       66.27556       46.30445
C         22.33676       67.09763       45.78357
O         22.36487       67.65322       44.55551
O         21.37042       67.30233       46.50035
H         26.06334       65.33068       45.32905
H         24.52104       63.94825       47.34042
H         22.55757       64.40445       45.80117
H         23.69149       64.99373       44.53357
H         24.43332       66.84315       46.18065
H         23.32797       66.10049       47.39057
N         25.40297       62.00984       44.83097
C         25.32871       60.64481       44.35154
H         26.26102       60.11181       44.63756
H         24.46741       60.08947       44.77658
H         25.24574       60.64470       43.24470
H         26.19419       62.56274       44.47684
Ca        24.24211       67.84989       43.32129
O         27.11169       67.97981       41.10237
H         27.35725       68.09698       40.15136
H         27.93424       68.21520       41.60108
O         25.32909       69.57455       45.41071
H         24.71304       70.34469       45.32269
H         25.78998       69.71754       46.27444
O         26.92882       67.18686       43.90864
H         26.81072       66.40007       43.31746
H         27.90750       67.28132       44.01281
O         26.03523       70.65540       42.47980
H         26.87064       70.71748       41.95212
H         26.17932       71.26681       43.24478
O         22.71291       70.51233       43.02136
H         22.89441       71.20255       42.33520
H         22.38689       71.01995       43.80644
O         24.25020       69.35525       40.18879
H         23.90664       69.04130       39.31473
H         24.75353       70.18025       39.97618

Ca 1.0



