%chk=apoCaM-CA-Ng.loop3.water3.frame830.chk
%nprocshared=20
%mem=10GB
%nosave
#b3lyp/svp scf=(tight,noincore,xqc) Test 
#IOP(5/87=12) Density=Current Pop=(MK,readradii) iop(6/33=2) iop(6/42=6)

apoCaM-CA-Ng.loop3.water3.frame830 

   0  1 
C         56.85204       88.82712      -29.23458
C         56.81951       89.43834      -30.60399
O         57.54362       88.97409      -31.47267
H         56.14160       89.33218      -28.54676
H         56.56298       87.75663      -29.30732
H         57.87488       88.90151      -28.81298
N         55.96619       90.46273      -30.88544
C         55.81551       91.00873      -32.23233
C         57.07106       91.77697      -32.65678
O         57.91814       92.03828      -31.81346
C         54.51173       91.85613      -32.27193
C         53.85667       92.07069      -33.61092
O         52.68157       92.72512      -33.65857
O         54.30670       91.59191      -34.63537
H         55.34415       90.79747      -30.13271
H         55.68301       90.14341      -32.89793
H         54.68438       92.82520      -31.75605
H         53.73268       91.30519      -31.70104
N         57.26908       92.14681      -33.95558
C         58.43702       92.88288      -34.43755
C         58.03964       94.27410      -34.94611
O         58.92010       95.09778      -35.15054
C         59.13778       91.99504      -35.48780
C         60.40842       92.57064      -36.12505
C         61.04807       91.50854      -37.03520
C         62.29554       92.03617      -37.75212
N         62.91067       90.98277      -38.56154
H         56.57787       91.86963      -34.65807
H         59.14198       93.05804      -33.59583
H         58.42157       91.75404      -36.30063
H         59.40255       91.04242      -34.97637
H         61.13288       92.85746      -35.33259
H         60.14914       93.46788      -36.72691
H         60.31138       91.17780      -37.80084
H         61.33123       90.62949      -36.41461
H         63.03429       92.39869      -37.00395
H         62.00953       92.88752      -38.40916
H         62.23007       90.62380      -39.27026
H         63.74380       91.37185      -39.05890
H         63.22315       90.19583      -37.94680
N         56.73067       94.62151      -35.11305
C         56.23845       95.96427      -35.39905
C         55.28551       96.38738      -34.28241
O         55.51133       97.43689      -33.69605
C         55.62811       96.06498      -36.82030
C         54.80892       94.88774      -37.28292
O         53.70602       94.49388      -36.63276
O         55.16221       94.26628      -38.27151
H         56.01146       93.90053      -35.00302
H         57.06689       96.70997      -35.39658
H         56.48235       96.14004      -37.53006
H         55.05070       97.01103      -36.90910
N         54.25269       95.58939      -33.87997
C         53.38468       95.88906      -32.75294
C         51.90724       95.81617      -33.08443
O         51.12586       96.01048      -32.16323
H         54.11695       94.68245      -34.33039
H         53.60528       96.88962      -32.32276
H         53.58180       95.13311      -31.96292
N         51.43258       95.55117      -34.34163
C         50.00603       95.51286      -34.65750
C         49.58007       94.19395      -35.29069
O         50.41571       93.40511      -35.70653
C         49.68130       96.63710      -35.66118
C         50.11932       97.99174      -35.16796
N         51.04340       98.70588      -35.85449
O         49.63725       98.44888      -34.14273
H         52.09032       95.41656      -35.11665
H         49.40633       95.66063      -33.73279
H         48.58996       96.66621      -35.86768
H         50.20168       96.41182      -36.61944
H         51.46340       98.33616      -36.72057
H         51.34471       99.63273      -35.52035
N         48.24984       93.93136      -35.42755
C         47.67152       92.83540      -36.19061
C         48.16654       91.45584      -35.82034
O         48.16992       91.10053      -34.65046
H         47.58148       94.59281      -35.00254
H         47.85340       93.01793      -37.27115
H         46.57074       92.85777      -36.03872
N         48.52027       90.58952      -36.81678
C         48.94978       89.20987      -36.59066
C         50.32547       89.16657      -35.94932
O         50.89084       90.21839      -35.68829
C         48.93287       88.42698      -37.92931
C         47.53442       88.34652      -38.50752
C         46.50669       87.70110      -37.79407
C         47.24288       88.90636      -39.76315
C         45.21414       87.62768      -38.32039
C         45.94788       88.82928      -40.28909
C         44.92981       88.19318      -39.57048
O         43.68660       88.13050      -40.08947
H         48.42358       90.91228      -37.79223
H         48.23612       88.71454      -35.89803
H         49.28158       87.38402      -37.78226
H         49.63176       88.91629      -38.64363
H         46.70235       87.25262      -36.82862
H         48.01498       89.40433      -40.33565
H         44.43523       87.13051      -37.75540
H         45.73468       89.26567      -41.25678
H         42.95470       87.70185      -39.62261
N         50.90652       87.96534      -35.63695
C         52.18096       87.80701      -34.93510
C         53.35234       88.34369      -35.75948
O         53.28953       89.46323      -36.24367
C         52.11330       88.43500      -33.50926
C         53.41207       88.20715      -32.69374
C         50.88890       87.91655      -32.72994
C         53.74424       86.75368      -32.34007
H         50.39434       87.09916      -35.85925
H         52.34230       86.71735      -34.78993
H         51.99750       89.53482      -33.60964
H         53.34046       88.77830      -31.74262
H         54.25802       88.61154      -33.27248
H         49.94628       88.17900      -33.25399
H         50.91975       86.81228      -32.62212
H         50.84952       88.37963      -31.72159
H         53.87890       86.12961      -33.24353
H         54.69760       86.73232      -31.77063
H         52.95699       86.30582      -31.70163
N         54.50236       87.61776      -35.88303
C         55.68429       88.11868      -36.58300
C         56.39236       87.06232      -37.42578
O         57.38317       87.40949      -38.05505
C         56.65981       88.71071      -35.55809
O         57.07487       87.72729      -34.65108
H         54.58108       86.74563      -35.34284
H         55.39388       88.94151      -37.26973
H         56.13570       89.52366      -35.01790
H         57.54175       89.14372      -36.08207
H         57.70614       88.17768      -34.03267
N         55.98247       85.75959      -37.47928
C         56.70648       84.73921      -38.23691
C         56.66777       85.03406      -39.73352
O         55.89011       85.89142      -40.13127
C         56.07774       83.37551      -37.94092
H         55.15591       85.46477      -36.94379
H         57.76053       84.73999      -37.88195
H         55.01481       83.36842      -38.26419
H         56.60281       82.56177      -38.45271
H         56.12145       83.16876      -36.85029
N         57.48190       84.43308      -40.65467
C         58.58043       83.50944      -40.37842
C         58.75027       82.54283      -41.55130
O         58.87062       83.02942      -42.66801
C         59.87331       84.32029      -40.22766
H         57.41201       84.79394      -41.61998
H         58.44977       82.98359      -39.42058
H         60.09330       84.90134      -41.14905
H         59.78267       85.03082      -39.37859
H         60.72833       83.64061      -40.01978
N         58.84932       81.18304      -41.43334
C         58.83343       80.43843      -40.17852
C         57.45185       80.32744      -39.55677
O         57.36719       79.91591      -38.40711
C         59.41404       79.00441      -40.35332
C         58.51702       77.97958      -41.09402
C         58.25927       78.29817      -42.53731
O         56.99904       78.49605      -42.96996
O         59.18605       78.35724      -43.32981
H         59.06357       80.67688      -42.30164
H         59.52333       80.96823      -39.48499
H         59.57366       78.58774      -39.33419
H         60.41214       79.06237      -40.83964
H         57.54706       77.88462      -40.56062
H         59.01080       76.98526      -41.05405
N         56.31921       80.57855      -40.27248
C         55.00070       80.35387      -39.71730
H         54.22472       80.57140      -40.48069
H         54.89915       79.29212      -39.40434
H         54.83043       81.00428      -38.83749
H         56.38162       80.88604      -41.25345
Ca        52.76120       92.51782      -37.18264
O         51.11138       94.08879      -39.15090
H         52.06989       94.23425      -39.35392
H         50.98228       93.11173      -39.24948
O         55.99352       91.53354      -37.65103
H         56.31379       90.90058      -38.34100
H         56.63216       92.28746      -37.70030
O         52.88637       90.23616      -39.26232
H         52.84756       89.32192      -38.88465
H         51.95019       90.55715      -39.22899

Ca 1.0



