%chk=apoCaM-CA-Ng.loop2.water3.frame90.chk
%nprocshared=20
%mem=10GB
%nosave
#b3lyp/svp scf=(tight,noincore,xqc) Test 
#IOP(5/87=12) Density=Current Pop=(MK,readradii) iop(6/33=2) iop(6/42=6)

apoCaM-CA-Ng.loop2.water3.frame90 

   -2  1 
C         63.64341       52.62881        7.87338
C         64.98520       52.68236        7.20358
O         65.07116       52.41893        6.01232
H         62.85118       52.33423        7.15171
H         63.66772       51.88747        8.69934
H         63.39322       53.62794        8.28840
N         66.09076       53.03146        7.92084
C         67.42279       53.12690        7.32687
C         67.95047       51.77297        6.84911
O         68.92455       51.75756        6.10995
C         68.40228       53.73270        8.35745
C         69.77471       53.97821        7.79669
O         69.92937       54.74692        6.86134
O         70.84205       53.35408        8.33075
H         65.96466       53.27222        8.91698
H         67.34333       53.81765        6.45700
H         68.47735       53.04400        9.22872
H         68.00199       54.70416        8.72043
N         67.38255       50.59904        7.25539
C         67.84804       49.26954        6.87591
C         67.74779       49.05342        5.38025
O         68.69925       48.59081        4.76431
C         69.26286       49.00240        7.41817
H         66.57372       50.62603        7.89191
H         67.16399       48.53233        7.35088
H         70.00777       49.68991        6.96504
H         69.27938       49.13985        8.51911
H         69.57213       47.96070        7.18817
N         66.60213       49.39439        4.72599
C         66.39180       49.21638        3.29766
C         67.54947       49.80927        2.50830
O         68.18775       49.10362        1.73829
C         66.13045       47.72779        2.98459
C         65.68529       47.52385        1.56019
O         66.33256       46.81362        0.80806
O         64.55802       48.11122        1.11337
H         65.84169       49.83993        5.26211
H         65.46374       49.76259        3.03234
H         65.31304       47.35951        3.64135
H         67.04261       47.12963        3.19747
N         67.87425       51.12038        2.66324
C         68.95113       51.76086        1.92759
C         68.41296       52.72140        0.89492
O         69.21423       53.34036        0.20880
H         67.30918       51.70409        3.30038
H         69.57202       51.01778        1.38296
H         69.61472       52.28830        2.64648
N         67.07001       52.87831        0.69560
C         66.51670       53.77200       -0.31299
C         66.86699       55.21309        0.02024
O         67.35107       55.47807        1.11368
C         64.97434       53.61917       -0.36727
C         64.44801       52.25922       -0.88614
N         64.61365       52.10935       -2.32417
O         64.97458       51.14590       -0.21715
H         66.41077       52.34327        1.27407
H         66.95657       53.51615       -1.30085
H         64.53174       54.40205       -1.01975
H         64.57905       53.78789        0.65879
H         65.62769       52.01063       -2.55085
H         64.12569       51.22925       -2.60875
N         66.66330       56.20112       -0.89696
C         66.95017       57.60119       -0.61789
C         65.74530       58.47055       -0.87050
O         64.76805       58.00608       -1.44281
H         66.30805       55.94846       -1.83229
H         67.77822       57.95494       -1.26864
H         67.26743       57.73816        0.43734
N         65.75325       59.77173       -0.46105
C         64.64931       60.69306       -0.73105
C         63.30602       60.17464       -0.21734
O         62.29116       60.52880       -0.79950
C         64.93855       62.13100       -0.22647
C         65.03482       62.24034        1.30644
O         66.09475       62.64807       -0.84365
H         66.58861       60.10948        0.03907
H         64.56222       60.74955       -1.83988
H         64.09170       62.77940       -0.53890
H         66.89426       62.29584       -0.37239
H         65.22081       63.29751        1.59206
H         64.08547       61.91732        1.78017
H         65.86168       61.61757        1.70687
N         63.23179       59.28413        0.81507
C         62.00081       58.59071        1.20532
C         62.18698       57.09225        1.00199
O         63.27932       56.66479        0.65403
C         61.59385       58.90317        2.68155
C         62.74315       58.61531        3.68402
C         61.07158       60.34379        2.80001
C         62.29449       58.63663        5.14702
H         64.10052       59.03043        1.30816
H         61.15657       58.88250        0.54317
H         60.73715       58.24539        2.94095
H         63.56402       59.35212        3.54561
H         63.15039       57.59933        3.49490
H         60.67735       60.54408        3.81690
H         61.86672       61.07985        2.56609
H         60.22406       60.49391        2.09668
H         63.16091       58.39987        5.80034
H         61.90610       59.62972        5.44735
H         61.51002       57.86771        5.31453
N         61.15093       56.22871        1.22462
C         61.29913       54.78335        1.13659
C         60.30437       54.16399        0.17341
O         60.73096       53.51387       -0.77116
C         61.13966       54.16989        2.54667
C         61.39118       52.68938        2.51223
O         60.69098       51.94942        1.83845
O         62.47632       52.19183        3.12131
H         60.23820       56.60395        1.51851
H         62.32119       54.52196        0.78566
H         60.13581       54.37599        2.97138
H         61.89863       54.63952        3.21091
N         58.96480       54.25212        0.40396
C         57.96700       53.45923       -0.30612
C         57.09075       52.75639        0.72966
O         56.53294       53.45768        1.56440
C         57.09469       54.35465       -1.19785
C         56.09571       53.50695       -1.95309
C         56.44982       52.90040       -3.17122
C         54.81843       53.27211       -1.41571
C         55.53525       52.08132       -3.84221
C         53.91107       52.44737       -2.08551
C         54.26776       51.85413       -3.29887
H         58.63757       54.86091        1.16998
H         58.46602       52.72826       -0.97692
H         57.73825       54.90097       -1.92182
H         56.57215       55.11801       -0.58147
H         57.43322       53.05670       -3.59716
H         54.53218       53.71446       -0.46995
H         55.81068       51.61677       -4.78031
H         52.93301       52.26426       -1.66011
H         53.56323       51.21503       -3.81526
N         56.86421       51.40740        0.74254
C         56.00660       50.74071        1.71248
C         56.41871       50.98787        3.15294
O         55.56914       51.34538        3.95628
C         56.13583       49.25491        1.35560
C         56.32709       49.32396       -0.14162
C         57.32377       50.47469       -0.26742
H         54.95687       51.07529        1.54289
H         57.07902       48.83490        1.77227
H         55.28510       48.62881        1.70250
H         56.64183       48.37691       -0.62791
H         55.35719       49.64788       -0.58932
H         58.35945       50.15922       -0.01925
H         57.25694       50.86410       -1.30343
N         57.71517       50.81511        3.54716
C         58.15015       50.96494        4.93724
C         57.92601       52.37123        5.47499
O         57.91727       52.53289        6.68815
C         59.64971       50.63140        5.10651
C         60.02029       49.20213        4.68581
C         61.50208       48.98411        4.81646
O         62.17009       48.69885        3.83474
O         62.10244       49.10486        6.01585
H         58.40175       50.54746        2.82827
H         57.55150       50.25504        5.55091
H         59.93611       50.76551        6.17357
H         60.23696       51.35230        4.50424
H         59.73300       49.02278        3.63200
H         59.48033       48.46993        5.32196
N         57.79175       53.44447        4.64813
C         57.59508       54.78542        5.15333
H         56.64794       54.83677        5.73129
H         58.44562       55.07502        5.80671
H         57.53684       55.50359        4.30786
H         57.85610       53.31939        3.63067
Ca        63.73808       51.06872        1.67170
O         61.37996       50.63124       -1.38215
H         60.94562       50.23709       -2.17955
H         60.62680       50.95942       -0.83100
O         62.09677       47.69202       -1.13057
H         61.33492       47.25305       -1.58617
H         62.74883       47.87270       -1.85314
O         60.22161       48.05835        1.22547
H         59.83699       47.30630        1.74210
H         59.68411       48.08792        0.39501

Ca 1.0



