%chk=apoCaM-CA-Ng.loop2.water4.frame112.chk
%nprocshared=20
%mem=10GB
%nosave
#b3lyp/svp scf=(tight,noincore,xqc) Test 
#IOP(5/87=12) Density=Current Pop=(MK,readradii) iop(6/33=2) iop(6/42=6)

apoCaM-CA-Ng.loop2.water4.frame112 

   -2  1 
C         48.58570       48.48494       92.45626
C         49.86834       47.72489       92.62360
O         50.91097       48.25213       92.26154
H         47.71619       47.90235       92.82511
H         48.64236       49.43965       93.01973
H         48.42744       48.71236       91.38221
N         49.87544       46.47076       93.16614
C         51.10775       45.70446       93.34481
C         51.76607       45.38757       91.99918
O         52.93910       45.05119       91.98408
C         50.81465       44.40701       94.13355
C         52.03127       43.66232       94.62598
O         53.27636       44.14724       94.45542
O         51.88124       42.61454       95.23319
H         48.98025       46.06452       93.47991
H         51.78765       46.34477       93.95151
H         50.20070       43.73548       93.49365
H         50.21925       44.66296       95.03714
N         51.07138       45.49341       90.82613
C         51.64528       45.33619       89.49455
C         52.66808       46.43382       89.25506
O         52.34756       47.56176       89.59272
C         52.14602       43.90453       89.25695
H         50.07130       45.73740       90.85445
H         50.82246       45.51502       88.76909
H         52.47148       43.78080       88.20259
H         52.99514       43.65235       89.92512
H         51.32187       43.18495       89.44407
N         53.90478       46.20785       88.71550
C         54.89928       47.26203       88.53540
C         56.07571       46.97752       89.46307
O         57.21609       47.23806       89.09933
C         55.39731       47.30227       87.06961
C         54.43757       47.62665       85.94836
O         53.22148       48.19408       86.09251
O         54.82264       47.41213       84.81054
H         54.18820       45.25230       88.45982
H         54.49348       48.25523       88.81828
H         55.80088       46.28639       86.86042
H         56.23967       48.02162       86.96906
N         55.86669       46.46338       90.70826
C         56.93778       46.25506       91.66258
C         57.56471       47.58230       91.96798
O         58.76479       47.74322       91.79881
H         54.91153       46.23735       91.01311
H         57.68595       45.53509       91.26330
H         56.51427       45.83349       92.60087
N         56.76748       48.60222       92.38093
C         57.24204       49.94714       92.63597
C         57.00167       50.27412       94.08159
O         55.87049       50.17416       94.54063
C         56.50603       50.96658       91.74343
C         56.84994       50.80854       90.28283
N         55.88456       50.61306       89.35675
O         58.01640       50.88885       89.92797
H         55.75899       48.41839       92.51051
H         58.32983       50.04204       92.42579
H         56.82281       51.99002       92.04053
H         55.40777       50.88743       91.90362
H         54.89619       50.56188       89.62981
H         56.12475       50.52623       88.35817
N         58.02713       50.73183       94.84915
C         57.83621       51.17291       96.21313
C         57.71588       52.66990       96.24445
O         57.81198       53.31728       95.20823
H         58.95105       50.88899       94.41805
H         58.66722       50.80647       96.85189
H         56.88826       50.76854       96.62946
N         57.42860       53.29155       97.41729
C         57.16209       54.72408       97.48706
C         55.89679       55.11324       96.70453
O         55.66401       56.30187       96.54760
C         57.09645       55.21914       98.95927
C         55.95926       54.60011       99.78928
O         58.33420       55.02185       99.59944
H         57.38493       52.71117       98.26689
H         58.02405       55.24734       97.01442
H         56.91988       56.31634       98.94000
H         58.45903       54.04899       99.74866
H         56.05492       53.49843       99.87355
H         55.97130       55.02495      100.81457
H         54.98255       54.83670       99.33593
N         55.03960       54.17428       96.19150
C         53.85354       54.48321       95.39008
C         53.93952       53.79642       94.02766
O         54.91504       53.11751       93.74452
C         52.55013       54.07267       96.14848
C         52.52164       52.55854       96.48559
C         52.36582       54.95813       97.38901
C         51.18728       52.08951       97.06330
H         55.21874       53.17922       96.37120
H         53.78872       55.57249       95.18611
H         51.67817       54.29273       95.50010
H         53.32659       52.30361       97.20643
H         52.68946       51.97740       95.55313
H         51.39071       54.76954       97.87953
H         53.17177       54.77842       98.11886
H         52.37767       56.03032       97.09483
H         51.22885       50.99334       97.23466
H         50.97411       52.57539       98.03612
H         50.36384       52.30604       96.34999
N         52.91603       53.93824       93.13780
C         52.85587       53.29995       91.82667
C         52.80060       54.35289       90.72173
O         53.36970       54.12124       89.66352
C         51.63093       52.36451       91.80154
C         51.55269       51.53842       90.55141
O         52.53399       50.66622       90.26533
O         50.58513       51.62074       89.81341
H         52.10955       54.50454       93.42433
H         53.76161       52.67709       91.65918
H         50.70256       52.96174       91.92672
H         51.70342       51.65447       92.65498
N         52.18150       55.55368       90.91850
C         52.16484       56.65465       89.96676
C         50.72487       56.98041       89.58422
O         49.89733       57.13562       90.47135
C         52.95571       57.86794       90.53427
C         52.76052       58.17029       92.01158
C         51.54151       58.63517       92.53602
C         53.84368       57.97615       92.89360
C         51.40358       58.86735       93.90978
C         53.70369       58.21980       94.26055
C         52.48216       58.65579       94.77127
H         51.70372       55.73673       91.80899
H         52.71178       56.37501       89.04600
H         52.78554       58.77314       89.91131
H         54.02823       57.60307       90.39940
H         50.69569       58.82465       91.89780
H         54.80212       57.62851       92.52751
H         50.45890       59.21349       94.30797
H         54.54342       58.06399       94.92372
H         52.37470       58.83437       95.83335
N         50.33114       57.08350       88.27526
C         48.97607       57.37298       87.83049
C         47.90760       56.50539       88.46038
O         46.94732       57.04980       88.98584
C         49.03595       57.11939       86.31808
C         50.42677       57.59730       85.99156
C         51.23438       57.00152       87.14028
H         48.76397       58.44700       88.03740
H         49.02769       56.02540       86.10712
H         48.21612       57.59472       85.73968
H         50.80496       57.34017       84.98000
H         50.42229       58.70704       86.09979
H         51.49995       55.93504       86.97238
H         52.14677       57.62574       87.26341
N         48.00069       55.14514       88.43104
C         46.95563       54.27697       88.96304
C         46.75464       54.55143       90.43976
O         45.64684       54.89938       90.82574
C         47.26446       52.78364       88.71094
C         47.36570       52.46545       87.20608
C         47.52481       50.99371       86.96515
O         48.51953       50.56418       86.40297
O         46.54984       50.14266       87.33751
H         48.84009       54.72328       88.00872
H         46.00305       54.49714       88.42903
H         46.43046       52.18585       89.14209
H         48.20444       52.48630       89.22104
H         48.22914       53.00125       86.75899
H         46.44240       52.79789       86.68544
N         47.79508       54.46002       91.31439
C         47.67834       54.77613       92.72457
H         46.64698       55.07528       93.00968
H         47.96746       53.89260       93.32939
H         48.35950       55.61931       92.96670
H         48.72409       54.18340       90.96366
Ca        52.17539       49.35017       87.71612
O         50.47259       46.96690       86.25991
H         49.72816       46.50136       86.71667
H         51.25276       46.37126       86.39001
O         48.98100       48.27254       88.75790
H         48.86023       47.34199       89.07267
H         48.07162       48.65984       88.79511
O         52.58983       52.26589       87.13113
H         53.15768       52.35317       86.32503
H         53.21622       51.98159       87.84320
O         51.24080       50.41206       84.93295
H         50.66334       50.37461       84.12994
H         52.14662       50.19428       84.59809

Ca 1.0



