%chk=apoCaM-CA-Ng.loop4.water3.frame101.chk
%nprocshared=20
%mem=10GB
%nosave
#b3lyp/svp scf=(tight,noincore,xqc) Test 
#IOP(5/87=12) Density=Current Pop=(MK,readradii) iop(6/33=2) iop(6/42=6)

apoCaM-CA-Ng.loop4.water3.frame101 

   -3  1 
C         32.60960       58.32913       99.86823
C         32.17611       59.68863      100.31861
O         32.68526       60.14953      101.32127
H         33.37710       57.91888      100.56239
H         31.74005       57.64271       99.84963
H         33.05830       58.40132       98.85593
N         31.26536       60.40684       99.60055
C         30.84723       61.76924       99.92514
C         32.02371       62.72506       99.96603
O         32.25568       63.35010      100.98115
C         29.84027       61.86917      101.11119
C         30.01255       61.08754      102.40214
O         31.04171       61.22077      103.26616
O         29.11584       60.32178      102.72035
H         30.89487       59.98882       98.73380
H         30.24585       62.15461       99.06933
H         28.87070       61.51256      100.69264
H         29.68294       62.94320      101.35208
N         32.75591       62.91868       98.82778
C         33.87740       63.84170       98.61479
C         33.44108       65.30378       98.75362
O         33.31138       65.96659       97.73345
C         35.14123       63.46217       99.43958
C         36.37622       64.33241       99.06894
C         35.47395       61.96577       99.27644
C         36.83487       64.24016       97.60543
H         32.47660       62.36475       98.00240
H         34.14741       63.70022       97.54542
H         34.93211       63.62572      100.51879
H         37.22689       64.02943       99.71760
H         36.15722       65.39697       99.28363
H         34.63914       61.33745       99.64887
H         35.64838       61.70128       98.21295
H         36.37632       61.70309       99.86848
H         36.05447       64.60873       96.90990
H         37.72786       64.88226       97.45906
H         37.11424       63.20280       97.33044
N         33.16203       65.86765       99.96440
C         32.52268       67.16860      100.10948
C         33.50284       68.33608      100.05903
O         33.25983       69.23321       99.26451
C         31.64119       67.19390      101.38514
C         30.90167       68.49439      101.54349
O         31.09979       69.25278      102.63908
O         30.11587       68.86602      100.68657
H         33.30509       65.32000      100.81829
H         31.78500       67.29091       99.28241
H         32.23124       67.01911      102.29738
H         30.89669       66.37061      101.32739
N         34.58298       68.47794      100.88257
C         35.10575       67.43599      101.75056
C         36.19620       67.96372      102.65912
O         37.07537       68.64792      102.15402
H         35.09975       69.37025      100.82764
H         35.53433       66.64307      101.10735
H         34.31784       66.98293      102.33783
N         36.29703       67.66326      103.99297
C         35.47719       66.73504      104.77260
C         35.46018       65.37594      104.07009
O         34.39520       64.91031      103.68947
C         34.09642       67.34978      105.10688
C         33.34586       66.58880      106.17089
O         32.25741       66.99583      106.54314
O         33.86892       65.48945      106.74865
H         37.10476       68.05785      104.48840
H         35.96483       66.61360      105.76533
H         33.45524       67.44520      104.21582
H         34.26372       68.37162      105.51001
N         36.61591       64.70932      103.76803
C         37.93402       65.09393      104.23387
C         38.73715       65.74599      103.14782
O         38.31396       65.79609      102.00024
H         36.57200       63.89337      103.15060
H         38.46317       64.21280      104.65574
H         37.86263       65.82777      105.05484
N         39.89423       66.36936      103.49123
C         40.64608       67.19404      102.56045
C         41.42348       66.36302      101.54809
O         42.04791       66.96922      100.68666
C         41.60535       68.15045      103.31468
C         40.90598       69.22801      104.17907
C         40.21410       68.71914      105.41888
N         40.89913       68.05002      106.37465
O         39.02504       68.93969      105.57785
H         40.18487       66.33033      104.47773
H         39.93364       67.84153      102.00087
H         42.17420       68.72021      102.54770
H         42.34008       67.57631      103.91820
H         40.18237       69.78732      103.54368
H         41.67808       69.94806      104.52170
H         41.90671       67.86619      106.27159
H         40.41759       67.71487      107.22272
N         41.44506       64.99439      101.56961
C         42.20360       64.20238      100.60308
C         43.30489       63.38484      101.26080
O         44.11593       62.83962      100.52588
C         41.26750       63.32202       99.73207
C         40.31241       64.20452       98.91799
C         40.46698       62.29623      100.55246
H         40.91175       64.48914      102.28957
H         42.74377       64.88140       99.90677
H         41.89681       62.76086       99.00550
H         39.64284       64.78827       99.58464
H         40.88994       64.91359       98.28679
H         39.69166       63.57444       98.24785
H         39.85113       61.66776       99.87381
H         41.15036       61.62515      101.11360
H         39.78096       62.79473      101.26810
N         43.42650       63.26841      102.61822
C         44.56776       62.62171      103.24949
C         44.16005       61.35343      103.96283
O         44.73145       60.31540      103.65388
C         45.23930       63.59161      104.24282
C         45.65598       64.88139      103.58154
N         45.15435       66.06558      104.00646
O         46.45408       64.85824      102.65659
H         42.71924       63.67834      103.24158
H         45.33560       62.34626      102.49111
H         46.13993       63.10729      104.68006
H         44.53719       63.81646      105.07371
H         44.48271       66.10733      104.78722
H         45.43807       66.94738      103.55493
N         43.22882       61.35952      104.96331
C         42.98237       60.18896      105.80177
C         41.52757       59.74280      105.76982
O         40.66355       60.51371      105.37695
C         43.34505       60.55172      107.26157
C         44.68279       61.25554      107.37878
C         44.72204       62.60114      107.79177
C         45.88711       60.60373      107.06671
C         45.93669       63.28275      107.88454
C         47.10606       61.28870      107.16680
C         47.13254       62.63206      107.57403
O         48.29575       63.30776      107.66894
H         42.74518       62.23993      105.19837
H         43.61976       59.34138      105.46764
H         43.31921       59.65241      107.91416
H         42.55856       61.24779      107.63129
H         43.80926       63.13259      108.03113
H         45.88306       59.56993      106.74670
H         45.94610       64.32049      108.19506
H         48.02907       60.77742      106.92495
H         49.14884       62.90014      107.46373
N         41.20270       58.49937      106.23481
C         39.86218       57.97579      106.51511
C         38.83100       57.99496      105.38308
O         37.70659       57.59516      105.65546
C         39.29400       58.56491      107.83083
C         38.89392       60.04586      107.79341
C         38.24068       60.48708      109.07737
O         38.06386       59.63101      110.10464
O         37.85900       61.64034      109.19008
H         41.98483       57.87470      106.48774
H         39.99499       56.89825      106.76664
H         40.03785       58.40726      108.64401
H         38.38885       57.97252      108.09367
H         38.17379       60.21212      106.96396
H         39.79058       60.67666      107.64189
N         39.11093       58.37639      104.10308
C         38.10278       58.37247      103.03893
C         38.36806       57.27901      102.01845
O         37.55366       57.12898      101.11646
C         38.06754       59.75379      102.34529
C         37.59342       60.90074      103.25332
C         36.10350       60.88540      103.47215
O         35.37431       61.94189      103.06617
O         35.55182       59.94144      104.01160
H         40.07238       58.64109      103.84891
H         37.09701       58.13657      103.44260
H         37.41155       59.73729      101.44568
H         39.10037       59.97484      101.99971
H         37.83552       61.85523      102.73859
H         38.13596       60.89064      104.22116
N         39.44796       56.45072      102.09539
C         39.64896       55.37848      101.14635
H         40.59094       54.83894      101.37871
H         38.80348       54.65983      101.20929
H         39.71230       55.78720      100.11579
H         40.14779       56.56165      102.84186
Ca        33.13729       62.01077      103.08621
O         31.18106       63.84928      104.78357
H         30.31016       64.19826      104.46867
H         31.62288       64.62987      105.19929
O         34.34982       62.30373      105.84259
H         33.76538       63.10159      105.84307
H         34.79640       62.31671      106.72514
O         32.76253       59.76445      105.19965
H         31.98337       59.15421      105.19642
H         33.49953       59.22631      105.58275

Ca 1.0



