%chk=apoCaM-CA-Ng.loop3.water5.frame97.chk
%nprocshared=20
%mem=10GB
%nosave
#b3lyp/svp scf=(tight,noincore,xqc) Test 
#IOP(5/87=12) Density=Current Pop=(MK,readradii) iop(6/33=2) iop(6/42=6)

apoCaM-CA-Ng.loop3.water5.frame97 

   0  1 
C         53.40638       68.69998       93.75520
C         54.75477       69.23017       93.35937
O         54.83195       70.38628       92.97503
H         52.71194       68.75778       92.89118
H         53.46592       67.64488       94.09509
H         52.99823       69.31325       94.58705
N         55.86842       68.44087       93.44591
C         57.23476       68.87419       93.14439
C         57.49097       69.13447       91.64954
O         58.60538       69.50773       91.31246
C         57.61052       70.07130       94.05726
C         59.07472       70.40682       94.01518
O         59.98934       69.48502       94.37260
O         59.44086       71.52151       93.67854
H         55.75382       67.47762       93.79675
H         57.91038       68.03444       93.42259
H         57.36838       69.80557       95.10984
H         57.02213       70.97244       93.78740
N         56.53877       68.91657       90.69384
C         56.74005       69.13862       89.25923
C         55.79192       70.20210       88.72480
O         55.75544       70.39916       87.51704
C         56.47695       67.82383       88.48836
C         57.52861       66.72100       88.67867
C         58.90954       67.14354       88.13848
C         59.87857       65.96513       87.95629
N         60.17395       65.27452       89.20990
H         55.61155       68.56942       90.97562
H         57.76292       69.50133       89.02841
H         56.45182       68.03113       87.39547
H         55.47327       67.43449       88.76923
H         57.17378       65.85297       88.08069
H         57.59330       66.41107       89.74323
H         59.36393       67.90852       88.80323
H         58.77952       67.59272       87.12908
H         60.82600       66.35915       87.52508
H         59.44890       65.24362       87.22571
H         60.87202       64.51988       89.01782
H         60.57768       65.94390       89.90379
H         59.31046       64.83022       89.59509
N         55.01758       70.94995       89.55379
C         54.04030       71.91696       89.08997
C         54.53608       73.30722       89.43212
O         55.07359       73.50355       90.51386
C         52.68729       71.56576       89.73404
C         51.55762       72.39142       89.19086
O         51.55120       73.72393       89.34935
O         50.63197       71.85304       88.60608
H         55.11672       70.84882       90.57108
H         53.90420       71.85013       87.98703
H         52.74391       71.67931       90.83641
H         52.46856       70.49650       89.51349
N         54.39638       74.32405       88.53508
C         54.92498       75.66331       88.73624
C         54.51797       76.25706       90.06334
O         55.39680       76.63976       90.82297
H         53.88796       74.14400       87.65540
H         54.56917       76.31726       87.91011
H         56.03509       75.62565       88.68284
N         53.20780       76.33934       90.42293
C         52.76302       76.89328       91.69944
C         52.16625       75.83518       92.62751
O         51.65585       76.20734       93.67538
C         51.83428       78.10333       91.45819
C         50.51899       77.81700       90.77756
N         49.67486       78.83915       90.50868
O         50.20378       76.67902       90.47036
H         52.50080       75.98251       89.76638
H         53.62753       77.30749       92.26325
H         52.39225       78.83978       90.83895
H         51.61341       78.58377       92.43591
H         49.92598       79.80649       90.76170
H         48.77093       78.66686       90.04552
N         52.30647       74.49719       92.38321
C         51.92778       73.47876       93.35280
C         50.43730       73.27551       93.48235
O         49.66400       73.85674       92.73514
H         52.81247       74.18280       91.54717
H         52.36542       73.74715       94.33909
H         52.36184       72.50028       93.05547
N         49.97125       72.43717       94.45239
C         48.55424       72.14854       94.66485
C         48.02504       71.21423       93.56506
O         48.79553       70.80039       92.70975
C         48.37819       71.56239       96.09872
C         46.93633       71.39393       96.51961
C         46.06858       72.50215       96.55991
C         46.43404       70.12231       96.84313
C         44.71952       72.33228       96.88483
C         45.08452       69.95566       97.16621
C         44.22073       71.05991       97.18015
O         42.91303       70.91024       97.47195
H         50.66245       72.02300       95.09827
H         48.00028       73.11142       94.63225
H         48.84831       72.25856       96.82761
H         48.92232       70.59388       96.15744
H         46.42863       73.49427       96.32010
H         47.08099       69.25555       96.82898
H         44.05851       73.18986       96.89539
H         44.71027       68.96617       97.39614
H         42.52511       70.04493       97.66572
N         46.71186       70.83985       93.53569
C         46.10195       69.97185       92.53361
C         44.94875       70.74079       91.90750
O         44.96770       70.95606       90.70559
C         45.61973       68.63771       93.18212
C         46.76848       67.86452       93.88695
C         44.92051       67.72332       92.15551
C         47.88100       67.34811       92.96698
H         46.08404       71.19718       94.25827
H         46.83240       69.71239       91.73763
H         44.87577       68.88620       93.97157
H         46.33441       66.98928       94.41873
H         47.23369       68.51661       94.65047
H         44.04414       68.21998       91.70479
H         45.60011       67.45312       91.32226
H         44.56266       66.79469       92.64984
H         47.48814       66.62134       92.22757
H         48.38485       68.17820       92.43508
H         48.64299       66.82091       93.57866
N         43.93136       71.23239       92.67869
C         42.85754       72.05545       92.13317
C         41.93185       71.27088       91.22607
O         41.32613       71.88332       90.35778
C         42.03729       72.71147       93.25216
O         42.87957       73.49889       94.04876
H         43.95198       71.06964       93.69637
H         43.32409       72.88017       91.54725
H         41.55746       71.92175       93.87336
H         41.25397       73.35928       92.79643
H         42.30554       73.88805       94.75809
N         41.76035       69.92009       91.36871
C         40.89055       69.11262       90.51698
C         41.31856       69.13083       89.05236
O         40.56861       68.62791       88.22700
C         39.42533       69.55245       90.68038
H         42.25482       69.43354       92.12819
H         40.93131       68.05384       90.85776
H         38.75643       68.87657       90.10509
H         39.13227       69.48847       91.74999
H         39.25329       70.58678       90.32274
N         42.51640       69.65894       88.65400
C         42.92100       69.76527       87.25986
C         44.12030       68.89310       86.96107
O         44.71746       68.33256       87.87004
C         43.24379       71.22954       86.94687
H         43.18154       70.00001       89.35558
H         42.09635       69.42782       86.59608
H         44.08439       71.58008       87.58697
H         43.53318       71.35746       85.88325
H         42.35737       71.86558       87.15326
N         44.48174       68.69230       85.66031
C         45.57343       67.83169       85.22312
C         45.40588       66.43690       85.80416
O         46.31216       65.93002       86.45354
C         46.94739       68.45234       85.56033
C         47.12447       69.84218       84.93201
C         48.49389       70.38171       85.22756
O         49.25408       70.66433       84.31532
O         48.89161       70.55415       86.50211
H         43.91300       69.13485       84.92205
H         45.51815       67.74510       84.11423
H         47.74206       67.78211       85.16196
H         47.07089       68.52945       86.66227
H         46.36856       70.54484       85.34388
H         46.98148       69.77535       83.83043
N         44.23505       65.76632       85.63342
C         44.01078       64.46071       86.21408
H         42.98177       64.11397       85.98270
H         44.73959       63.73123       85.80260
H         44.12474       64.51486       87.31871
H         43.47008       66.20547       85.09873
Ca        48.78929       74.26664       89.90256
O         47.27999       73.61890       87.32765
H         47.85603       72.81476       87.32391
H         47.59492       74.15053       86.55454
O         46.54204       75.08408       91.75502
H         46.42074       74.12579       91.97316
H         47.31484       75.36847       92.30507
O         47.29548       76.50665       88.72266
H         46.42934       76.02916       88.77104
H         47.06052       77.42436       88.43692
O         50.38415       75.65048       87.47136
H         51.09252       76.34138       87.43635
H         50.56380       75.06844       86.69079
O         47.52024       71.66736       89.79687
H         48.26816       71.02091       89.83011
H         47.47368       72.04157       90.71250

Ca 1.0



