%chk=apoCaM-CA-Ng.loop1.water3.frame27.chk
%nprocshared=20
%mem=10GB
%nosave
#b3lyp/svp scf=(tight,noincore,xqc) Test 
#IOP(5/87=12) Density=Current Pop=(MK,readradii) iop(6/33=2) iop(6/42=6)

apoCaM-CA-Ng.loop1.water3.frame27 

   0  1 
C         81.44874       45.10609       58.14198
C         80.15229       44.35710       58.25623
O         79.24664       44.84577       58.91589
H         82.18710       44.55106       57.52501
H         81.26942       46.09545       57.67257
H         81.88063       45.25429       59.15397
N         79.99777       43.15175       57.64094
C         78.78332       42.34591       57.72732
C         79.04504       41.00408       58.40297
O         78.11581       40.21451       58.49918
C         78.16455       42.15197       56.32253
C         79.01041       41.34610       55.36868
O         78.58659       40.29032       54.92597
O         80.21274       41.79584       54.96275
H         80.79101       42.78070       57.09825
H         78.01575       42.86923       58.33832
H         77.95938       43.14502       55.86851
H         77.18636       41.63572       56.44621
N         80.27671       40.67553       58.89578
C         80.59999       39.38238       59.48110
C         81.05105       39.57366       60.92135
O         81.92528       40.40312       61.13140
C         81.70549       38.70574       58.65354
C         81.24726       38.46934       57.20668
C         82.28165       37.65315       56.42275
C         81.82634       37.33855       54.98737
N         81.71944       38.53974       54.15764
H         81.04911       41.35394       58.84255
H         79.74367       38.70453       59.42434
H         81.92570       37.72126       59.11317
H         82.63518       39.31654       58.66086
H         81.07993       39.45265       56.72144
H         80.28915       37.90381       57.21551
H         82.42606       36.68361       56.94867
H         83.25687       38.18590       56.39969
H         80.84940       36.80536       55.00876
H         82.57627       36.65753       54.52891
H         80.97356       39.17412       54.51518
H         82.63546       39.04367       54.13402
H         81.46352       38.25780       53.18411
N         80.57650       38.85642       61.98846
C         79.63187       37.74001       61.97012
C         80.12651       36.63713       61.03909
O         79.43356       36.30939       60.08504
C         78.18433       38.17624       61.65065
C         77.68343       39.27320       62.54443
O         77.29638       40.32291       62.05578
O         77.62823       39.10837       63.87819
H         80.98316       39.07859       62.91137
H         79.57981       37.31457       62.99840
H         77.54706       37.28232       61.78466
H         78.05683       38.50602       60.60663
N         81.31982       36.00243       61.21075
C         82.22169       36.17351       62.33441
C         83.59131       36.64490       61.88351
O         83.74580       37.00450       60.72573
H         81.59860       35.30013       60.50803
H         82.28790       35.18309       62.80948
H         81.83939       36.87075       63.10257
N         84.66116       36.69521       62.73037
C         84.63868       36.22073       64.11409
C         84.39342       34.71497       64.18153
O         84.36091       34.05751       63.14844
C         85.95922       36.60135       64.83184
C         87.18866       36.01672       64.18081
O         88.05126       36.75499       63.73159
O         87.35363       34.68253       64.10234
H         85.53982       37.08705       62.35551
H         83.81185       36.73817       64.64803
H         85.93133       36.27596       65.89264
H         86.04481       37.71085       64.83075
N         84.22996       34.09251       65.38173
C         84.01218       32.66048       65.48389
C         82.58738       32.21827       65.19044
O         82.37561       31.01403       65.18740
H         84.32298       34.63626       66.25236
H         84.22462       32.33617       66.52545
H         84.73790       32.13301       64.82645
N         81.54697       33.09711       65.03188
C         80.15140       32.65571       64.92285
C         79.46073       33.21768       63.68109
O         79.86351       34.25572       63.18145
C         79.42157       33.00857       66.24666
C         77.97684       32.50063       66.32507
O         79.47797       34.38653       66.52058
H         81.72809       34.10988       65.09221
H         80.11379       31.54835       64.83043
H         79.97746       32.48928       67.05970
H         78.96076       34.85704       65.81782
H         77.56512       32.70773       67.33603
H         77.33456       33.00847       65.57651
H         77.94573       31.40356       66.15389
N         78.41256       32.54098       63.11995
C         77.71440       32.93960       61.89624
C         76.24263       33.17669       62.20777
O         75.60866       32.29020       62.76400
C         77.85985       31.81484       60.82247
C         79.33795       31.47276       60.49591
C         77.08434       32.15154       59.53276
C         80.14855       32.61822       59.88694
H         78.10669       31.66295       63.56710
H         78.14175       33.87586       61.47818
H         77.41090       30.88299       61.23418
H         79.35682       30.62005       59.78210
H         79.85029       31.13586       61.42226
H         77.43433       33.10487       59.08503
H         77.19990       31.33620       58.78763
H         75.99993       32.24385       59.74388
H         79.71318       32.95722       58.92504
H         80.20090       33.46866       60.58955
H         81.18418       32.27084       59.68845
N         75.62455       34.33708       61.82872
C         74.20915       34.61696       62.08623
C         73.37929       34.73300       60.80949
O         72.19417       34.99145       60.94295
C         74.06528       35.91384       62.92533
C         74.38538       37.18819       62.13095
O         74.89786       35.84925       64.05301
H         76.17854       35.04554       61.32519
H         73.76475       33.79143       62.68394
H         73.00435       36.02690       63.25171
H         74.44923       35.25347       64.70784
H         74.26926       38.07922       62.77855
H         75.40955       37.16953       61.73462
H         73.69280       37.30526       61.27125
N         73.92773       34.56741       59.56463
C         73.27846       34.73680       58.25799
C         71.90040       35.40293       58.26433
O         70.93789       34.81726       58.73928
C         73.26583       33.39334       57.48077
C         72.52016       32.26603       58.21542
O         74.59105       32.98552       57.25616
H         74.92012       34.30533       59.50688
H         73.93353       35.42831       57.68399
H         72.77117       33.58067       56.49747
H         74.57877       32.38332       56.46621
H         71.45248       32.50686       58.37772
H         72.55546       31.33760       57.60734
H         72.99686       32.05752       59.19686
N         71.73798       36.63594       57.69281
C         70.44626       37.30542       57.58178
C         70.41825       38.64553       58.31920
O         69.36678       39.26990       58.33916
C         70.11362       37.42629       56.07548
C         68.69637       37.92673       55.72512
C         67.54673       37.12227       56.37047
C         67.55878       35.60708       56.08559
N         67.40709       35.30349       54.66272
H         72.55527       37.10810       57.27566
H         69.66776       36.67520       58.05473
H         70.22808       36.41716       55.62388
H         70.86086       38.08589       55.58171
H         68.58918       37.90064       54.61978
H         68.58763       38.98963       56.02249
H         66.58096       37.54798       56.02273
H         67.58063       37.26483       57.47054
H         66.71202       35.14697       56.64131
H         68.49162       35.14304       56.47245
H         67.37121       34.26533       54.54176
H         66.51648       35.71537       54.30134
H         68.21928       35.66943       54.11752
N         71.49800       39.13098       59.00382
C         71.43304       40.35699       59.79620
C         71.17818       41.56398       58.91153
O         71.98381       41.84876       58.03545
C         72.72639       40.52946       60.62191
C         72.65295       41.72130       61.58917
C         73.85933       41.75775       62.48346
O         74.60357       42.72473       62.47805
O         74.11207       40.72888       63.31528
H         72.37568       38.59208       59.01743
H         70.60324       40.24228       60.52916
H         73.60802       40.63854       59.95126
H         72.85723       39.60556       61.22405
H         71.75224       41.62787       62.23331
H         72.57796       42.66913       61.01245
N         70.06633       42.32779       59.09964
C         69.78235       43.49606       58.29487
H         68.82950       43.96116       58.62781
H         70.59728       44.24257       58.40660
H         69.68284       43.20878       57.22689
H         69.39710       42.07792       59.84335
Ca        76.78276       40.81675       65.09599
O         74.99206       38.25028       66.00976
H         74.97641       38.48438       65.04843
H         75.72851       37.59373       66.09199
O         74.40890       41.16938       67.21695
H         74.84150       41.14897       68.10743
H         74.40566       42.12671       66.96401
O         77.79754       39.54051       67.64970
H         77.92504       38.86737       66.93463
H         78.40313       40.28355       67.40072

Ca 1.0



