%chk=apoCaM-CA-Ng.loop2.water4.frame249.chk
%nprocshared=20
%mem=10GB
%nosave
#b3lyp/svp scf=(tight,noincore,xqc) Test 
#IOP(5/87=12) Density=Current Pop=(MK,readradii) iop(6/33=2) iop(6/42=6)

apoCaM-CA-Ng.loop2.water4.frame249 

   -2  1 
C         52.68640        5.68670       -5.50775
C         54.13427        5.37699       -5.74493
O         54.86973        6.27316       -6.13491
H         52.12782        4.78713       -5.17432
H         52.59543        6.47349       -4.73045
H         52.23171        6.05396       -6.45198
N         54.62275        4.12010       -5.53594
C         56.02250        3.77653       -5.77578
C         56.42557        3.90712       -7.24601
O         57.61276        3.81105       -7.52488
C         56.33906        2.35174       -5.25485
C         55.58858        1.23110       -5.93861
O         55.79897       -0.03769       -5.54067
O         54.79472        1.44858       -6.84075
H         53.98216        3.39733       -5.17316
H         56.64097        4.48700       -5.18243
H         56.10010        2.31242       -4.16985
H         57.42758        2.15732       -5.36774
N         55.49764        4.07460       -8.23891
C         55.85277        4.16065       -9.65727
C         54.66739        4.06623      -10.63604
O         54.94774        3.79855      -11.79561
C         56.65054        5.44172       -9.94940
H         54.51818        4.05439       -7.95811
H         56.48987        3.27299       -9.87385
H         57.56403        5.50711       -9.32436
H         56.97254        5.46707      -11.01216
H         56.02262        6.33485       -9.74342
N         53.35099        4.23905      -10.27589
C         52.18547        3.99174      -11.12988
C         52.41167        4.29161      -12.60007
O         52.37751        3.38599      -13.42272
C         51.65948        2.57316      -10.84171
C         50.42107        2.20835      -11.62603
O         50.43707        1.20093      -12.31511
O         49.29392        2.95525      -11.60408
H         53.10685        4.47924       -9.31115
H         51.38525        4.68772      -10.81407
H         51.42059        2.49652       -9.76060
H         52.46243        1.83370      -11.06309
N         52.61674        5.57615      -12.99685
C         52.83725        5.95117      -14.38108
C         54.16727        6.62632      -14.47871
O         55.07176        6.08651      -15.09988
H         52.61597        6.32102      -12.28288
H         52.03750        6.64407      -14.72209
H         52.82017        5.06368      -15.04935
N         54.34991        7.83217      -13.87678
C         55.62561        8.52962      -13.85306
C         55.98108        8.90912      -12.42928
O         55.17379        8.73521      -11.52488
C         55.52137        9.79798      -14.71854
C         55.20539        9.44601      -16.15096
N         54.04531        9.84492      -16.72244
O         56.00326        8.78507      -16.79932
H         53.53877        8.28720      -13.42761
H         56.43555        7.88072      -14.25493
H         56.47536       10.36747      -14.70093
H         54.72520       10.45202      -14.29849
H         53.35345       10.39254      -16.19045
H         53.83131        9.59405      -17.69899
N         57.19462        9.45746      -12.16092
C         57.55711        9.96378      -10.85070
C         56.82584       11.25521      -10.54253
O         56.00558       11.70151      -11.33438
H         57.89104        9.53186      -12.91848
H         58.63986       10.21612      -10.86926
H         57.39788        9.19094      -10.06748
N         57.16463       11.96642       -9.43257
C         56.68750       13.33130       -9.20394
C         55.19374       13.44879       -8.90697
O         54.69894       14.56559       -8.97522
C         57.54297       14.07491       -8.14102
C         57.53756       13.41966       -6.75146
O         58.86433       14.24515       -8.59604
H         57.89072       11.56562       -8.82226
H         56.84848       13.88493      -10.15719
H         57.11893       15.09600       -8.02613
H         59.27969       13.35120       -8.70268
H         58.12962       14.04451       -6.04969
H         56.50307       13.33157       -6.36293
H         57.99913       12.41123       -6.77154
N         54.40912       12.38119       -8.57936
C         52.95026       12.48029       -8.44280
C         52.28001       11.45668       -9.34555
O         52.98256       10.64710       -9.93863
C         52.45605       12.40476       -6.96065
C         52.74244       11.09349       -6.17635
C         52.90653       13.64690       -6.17382
C         54.17667       10.87983       -5.67460
H         54.85061       11.45831       -8.47939
H         52.60574       13.46522       -8.82695
H         51.34756       12.47573       -7.00860
H         52.41553       10.21846       -6.77697
H         52.10929       11.11715       -5.26082
H         52.46588       13.63963       -5.15392
H         54.01110       13.69594       -6.09319
H         52.55830       14.56966       -6.68606
H         54.21283        9.94301       -5.07958
H         54.91079       10.77477       -6.48653
H         54.49034       11.70776       -5.00531
N         50.91898       11.42674       -9.50785
C         50.27996       10.42775      -10.35829
C         49.15183       11.04504      -11.18217
O         48.05775       10.50409      -11.22227
C         49.89467        9.23062       -9.45706
C         49.70365        7.93727      -10.19122
O         48.68305        7.11415       -9.89011
O         50.57415        7.54347      -10.95030
H         50.32340       12.08196       -8.97952
H         51.03142       10.07026      -11.09509
H         49.03797        9.47424       -8.79034
H         50.77065        9.03311       -8.80052
N         49.36709       12.22059      -11.84616
C         48.37347       12.93316      -12.65771
C         47.06401       13.15403      -11.90796
O         47.11070       13.63643      -10.78443
C         48.96115       14.30244      -13.10855
C         47.94729       15.19435      -13.79945
C         47.86883       15.26061      -15.20006
C         47.05960       15.97220      -13.02900
C         46.90536       16.07240      -15.81315
C         46.10449       16.78256      -13.64395
C         46.02350       16.82979      -15.03576
H         50.29743       12.65479      -11.74022
H         48.17659       12.34856      -13.57708
H         49.82138       14.10192      -13.78458
H         49.36821       14.86578      -12.23940
H         48.53854       14.67423      -15.81542
H         47.10606       15.95368      -11.94797
H         46.83794       16.11270      -16.89212
H         45.42654       17.37168      -13.03893
H         45.27809       17.45523      -15.50989
N         45.84296       12.92359      -12.50102
C         44.57784       13.28977      -11.88426
C         44.14193       12.30236      -10.81775
O         43.20950       12.61236      -10.08954
C         43.60999       13.34992      -13.07063
C         44.13461       12.23663      -13.95470
C         45.64398       12.44722      -13.85888
H         44.64353       14.30285      -11.42778
H         42.53066       13.30114      -12.81211
H         43.79412       14.30172      -13.62156
H         43.88118       11.27182      -13.46049
H         43.74097       12.21690      -14.99363
H         46.15778       11.48585      -14.07266
H         45.98513       13.23608      -14.56302
N         44.76611       11.10230      -10.65466
C         44.47621       10.20382       -9.54549
C         44.88844       10.87957       -8.25524
O         44.06874       10.98844       -7.35364
C         45.21657        8.86053       -9.72662
C         44.59156        8.05416      -10.88046
C         45.31256        6.76114      -11.11485
O         46.46824        6.76701      -11.50334
O         44.67653        5.58783      -10.93501
H         45.49725       10.82516      -11.32395
H         43.38702        9.97326       -9.50170
H         45.11376        8.25269       -8.80048
H         46.29919        9.04195       -9.90095
H         44.60157        8.63500      -11.82681
H         43.53276        7.83334      -10.61878
N         46.13724       11.40404       -8.11570
C         46.54957       12.09424       -6.91389
H         47.57877       12.49246       -7.04008
H         45.86482       12.94608       -6.71020
H         46.53619       11.39353       -6.05328
H         46.80702       11.34164       -8.89701
Ca        48.90324        5.03729      -10.77796
O         48.88126        5.76171      -13.59345
H         49.31930        4.98625      -14.02604
H         49.12296        6.53639      -14.15986
O         46.84843        3.93920       -8.62955
H         46.00639        4.45598       -8.56551
H         47.28220        4.06264       -7.74814
O         46.45370        3.09861      -12.15845
H         46.01421        2.47255      -11.52997
H         46.98685        2.51542      -12.75545
O         50.21566        4.49879       -8.22678
H         49.78669        4.90573       -7.43348
H         51.06953        4.13016       -7.88919

Ca 1.0



