%chk=apoCaM-CA-Ng.loop4.water4.frame568.chk
%nprocshared=20
%mem=10GB
%nosave
#b3lyp/svp scf=(tight,noincore,xqc) Test 
#IOP(5/87=12) Density=Current Pop=(MK,readradii) iop(6/33=2) iop(6/42=6)

apoCaM-CA-Ng.loop4.water4.frame568 

   -3  1 
C         56.93720       -1.45141       60.28706
C         56.09153       -2.50811       59.64700
O         56.11245       -3.64129       60.10098
H         57.66296       -1.06257       59.54216
H         56.29423       -0.62097       60.64498
H         57.50106       -1.86903       61.14871
N         55.30879       -2.19866       58.57330
C         54.49488       -3.16729       57.83829
C         53.41035       -3.80713       58.70769
O         52.77254       -4.74508       58.24835
C         55.38598       -4.24318       57.17198
C         56.61464       -3.64711       56.53885
O         56.53180       -2.77862       55.68639
O         57.81257       -4.05733       57.00135
H         55.30832       -1.22474       58.23298
H         53.99019       -2.63067       57.00392
H         54.79446       -4.81589       56.42540
H         55.73237       -4.95952       57.93471
N         53.11123       -3.32131       59.95195
C         52.05571       -3.87063       60.80227
C         50.75365       -3.12494       60.54883
O         50.80482       -2.04616       59.97331
C         52.46229       -3.85240       62.32024
C         52.91583       -2.44797       62.81134
C         53.52437       -4.92218       62.59160
C         53.10251       -2.35184       64.32732
H         53.55242       -2.44281       60.24329
H         51.87400       -4.91238       60.48669
H         51.58523       -4.13223       62.92657
H         52.14384       -1.69988       62.53134
H         53.87902       -2.15845       62.34195
H         53.12381       -5.90764       62.28189
H         54.45493       -4.70683       62.03022
H         53.75727       -5.00331       63.67231
H         52.15216       -2.59111       64.84886
H         53.90332       -3.02863       64.68632
H         53.39996       -1.31492       64.59312
N         49.52234       -3.61471       60.89506
C         49.23964       -4.92889       61.48382
C         49.60988       -6.03703       60.51040
O         50.36709       -6.92660       60.87382
C         47.74967       -5.06427       61.87240
C         47.32937       -4.04865       62.90829
O         46.94098       -4.45659       64.13120
O         47.31891       -2.85623       62.64708
H         48.71710       -3.00988       60.67307
H         49.79007       -5.06595       62.43165
H         47.60440       -6.07734       62.31102
H         47.09087       -4.97645       60.98256
N         49.13787       -6.01183       59.23264
C         49.47746       -6.99872       58.22100
C         48.84274       -8.33632       58.50790
O         47.62983       -8.38824       58.65914
H         48.54249       -5.22168       58.94228
H         50.58237       -7.07185       58.11378
H         49.06911       -6.65463       57.24676
N         49.59191       -9.47728       58.54626
C         48.99573      -10.79873       58.74885
C         48.43343      -10.99884       60.15750
O         47.86795      -12.05481       60.40820
C         49.99675      -11.92866       58.40173
C         51.14103      -12.06573       59.37203
O         52.00749      -11.05416       59.56621
O         51.29488      -13.11158       59.98338
H         50.60031       -9.40251       58.34788
H         48.16524      -10.90075       58.01350
H         50.40106      -11.76147       57.37996
H         49.43888      -12.89227       58.37965
N         48.54635      -10.04421       61.12950
C         48.03832      -10.21419       62.47916
C         48.88984      -11.12859       63.33898
O         48.53064      -11.31282       64.49223
H         48.98450       -9.14044       60.92078
H         46.98410      -10.56710       62.43751
H         48.04106       -9.22476       62.98500
N         50.03733      -11.71129       62.87564
C         50.89572      -12.58982       63.66622
C         51.59009      -11.86887       64.81795
O         52.15196      -12.54775       65.66698
C         50.14307      -13.85451       64.14270
C         49.53252      -14.63587       62.96655
C         48.88699      -15.93327       63.39151
N         48.31075      -16.72992       62.46297
O         48.88404      -16.27725       64.56518
H         50.33565      -11.53825       61.90936
H         51.71893      -12.95550       63.01128
H         49.34742      -13.59542       64.87166
H         50.87274      -14.51833       64.65772
H         50.33256      -14.87441       62.23282
H         48.76513      -14.00815       62.46489
H         48.30385      -16.45740       61.46909
H         47.87200      -17.62143       62.73717
N         51.71179      -10.50694       64.84842
C         52.47144       -9.80240       65.88430
C         53.81082       -9.29825       65.36358
O         54.57486       -8.76905       66.16069
C         51.66646       -8.59415       66.46006
C         51.41353       -7.48687       65.41091
C         50.33751       -9.03453       67.08016
H         51.32391       -9.95704       64.06976
H         52.70842      -10.49979       66.71762
H         52.27499       -8.13894       67.27386
H         52.36918       -7.11478       64.98362
H         50.77105       -7.84289       64.57991
H         50.90923       -6.61840       65.88495
H         49.66830       -9.47353       66.31113
H         50.51703       -9.78212       67.88033
H         49.82528       -8.15767       67.53339
N         54.13740       -9.34481       64.03995
C         55.28013       -8.61048       63.51251
C         56.58092       -9.38702       63.68911
O         56.54396      -10.60492       63.80668
C         55.01155       -8.30334       62.01845
C         55.83106       -7.19854       61.39968
N         55.65527       -6.89815       60.09808
O         56.62179       -6.54178       62.05573
H         53.46370       -9.74213       63.36995
H         55.31794       -7.63597       64.05073
H         53.95741       -7.97328       61.91056
H         55.12248       -9.24083       61.43191
H         54.98108       -7.41752       59.51799
H         56.21208       -6.14907       59.67358
N         57.77557       -8.73132       63.67684
C         59.09062       -9.37900       63.66964
C         60.21768       -8.35498       63.83970
O         59.94842       -7.16508       63.95447
C         59.25768      -10.21894       62.36646
C         58.99062       -9.45006       61.08447
C         57.87634       -9.79004       60.29447
C         59.83431       -8.41033       60.65215
C         57.59999       -9.09611       59.11438
C         59.55659       -7.72017       59.46611
C         58.43624       -8.05352       58.69891
O         58.17047       -7.36565       57.57009
H         57.73587       -7.70801       63.66381
H         59.16874      -10.06249       64.54332
H         58.53962      -11.06248       62.42618
H         60.25917      -10.69311       62.31117
H         57.20942      -10.58797       60.59537
H         60.70931       -8.13201       61.22083
H         56.73006       -9.36463       58.52804
H         60.21077       -6.92222       59.14208
H         57.39477       -7.55188       57.02184
N         61.52229       -8.75309       63.85524
C         62.63812       -7.82200       63.97826
C         63.35019       -7.77027       62.63062
O         63.87984       -8.79660       62.22632
C         63.57405       -8.27507       65.11609
C         64.74830       -7.30862       65.32784
C         65.65860       -7.80052       66.41522
O         66.82799       -8.05039       66.16910
O         65.19318       -7.96296       67.66844
H         61.74205       -9.75238       63.72364
H         62.26989       -6.82394       64.27470
H         63.96795       -9.28951       64.88577
H         62.98534       -8.33692       66.05871
H         64.36430       -6.30307       65.60569
H         65.33065       -7.21951       64.38566
N         63.38554       -6.66001       61.82968
C         62.73792       -5.38578       62.14179
C         63.61219       -4.53527       63.04113
O         64.77539       -4.86110       63.23620
C         62.24451       -4.67622       60.86104
C         63.31172       -4.19757       59.85695
C         62.61187       -3.83982       58.56768
O         62.83365       -4.49013       57.55849
O         61.64143       -2.90242       58.55360
H         63.84333       -6.76713       60.91365
H         61.78827       -5.59952       62.67028
H         61.61044       -3.80444       61.13691
H         61.59246       -5.41544       60.34759
H         64.03322       -5.01010       59.63609
H         63.87780       -3.33390       60.26604
N         63.09722       -3.44504       63.67095
C         63.88523       -2.65102       64.59021
H         64.74973       -2.19867       64.06061
H         63.26263       -1.84013       65.02384
H         64.25592       -3.29027       65.42159
H         62.10909       -3.19081       63.52362
Ca        59.89465       -3.15663       57.11579
O         61.79200       -3.27533       54.66330
H         62.21528       -2.45139       54.31450
H         62.54829       -3.88732       54.84556
O         59.03072       -4.40794       59.67570
H         58.30479       -4.97961       59.32322
H         59.10479       -4.66729       60.62696
O         59.00578       -2.11708       54.28366
H         59.38272       -2.03445       53.37248
H         58.30710       -1.41714       54.32666
O         60.45100       -5.80401       55.70370
H         60.24667       -6.03259       56.64479
H         59.83607       -6.36598       55.16916

Ca 1.0



