%chk=apoCaM-CA-Ng.loop1.water3.frame177.chk
%nprocshared=20
%mem=10GB
%nosave
#b3lyp/svp scf=(tight,noincore,xqc) Test 
#IOP(5/87=12) Density=Current Pop=(MK,readradii) iop(6/33=2) iop(6/42=6)

apoCaM-CA-Ng.loop1.water3.frame177 

   0  1 
C         91.29366       40.78431       14.55311
C         91.44785       42.25341       14.27396
O         90.85462       42.73704       13.32104
H         90.22292       40.54358       14.71567
H         91.67121       40.19874       13.68798
H         91.86460       40.47763       15.45542
N         92.26718       43.01855       15.04855
C         92.51644       44.43979       14.81338
C         93.92530       44.67121       14.27867
O         94.30828       45.81946       14.10228
C         92.25904       45.26148       16.09893
C         93.23053       44.98345       17.22053
O         94.03943       45.96596       17.66158
O         93.27729       43.88704       17.75366
H         92.78861       42.55018       15.80344
H         91.81945       44.83040       14.03979
H         91.22148       45.08675       16.45661
H         92.34223       46.33911       15.83584
N         94.73434       43.62244       13.95578
C         96.08977       43.74663       13.44578
C         96.13415       43.23232       12.01919
O         95.55688       42.18152       11.77485
C         97.03996       42.95819       14.36579
C         97.21314       43.70314       15.69728
C         98.18245       42.98034       16.63631
C         98.55063       43.83138       17.86526
N         97.38432       44.21273       18.66347
H         94.38251       42.65935       14.05287
H         96.42590       44.78524       13.45962
H         98.04002       42.88453       13.89655
H         96.66655       41.92176       14.51925
H         96.22611       43.81998       16.19296
H         97.62553       44.71252       15.47543
H         99.12982       42.76807       16.09319
H         97.73588       42.01269       16.95193
H         99.08298       44.75109       17.53295
H         99.25174       43.24298       18.49695
H         96.84475       43.36425       18.94855
H         97.71226       44.71438       19.52010
H         96.77071       44.86731       18.12745
N         96.81389       43.84892       10.99909
C         97.71661       45.00213       11.07972
C         98.79553       44.77686       12.14306
O         98.84534       45.52896       13.10770
C         97.01559       46.36942       11.28526
C         95.94692       46.77235       10.31523
O         95.45312       47.87840       10.45769
O         95.45643       45.97086        9.34870
H         96.77224       43.38554       10.07689
H         98.22653       45.08655       10.10285
H         97.81330       47.14133       11.21990
H         96.56235       46.46755       12.28555
N         99.69553       43.75610       12.08189
C         99.84837       42.88186       10.93195
C        100.76947       41.70413       11.21086
O        101.09315       41.44823       12.36200
H        100.33462       43.64565       12.88427
H        100.22798       43.50236       10.09620
H         98.87831       42.43817       10.63665
N        101.19287       40.87533       10.21441
C        100.98593       41.15441        8.79627
C        101.85957       42.32793        8.35566
O        102.66599       42.81437        9.13837
C        101.25747       39.89015        7.94541
C        102.64897       39.33533        8.09970
O        102.82260       38.09116        8.58632
O        103.62224       39.99639        7.77599
H        101.71967       40.03057       10.48604
H         99.91651       41.41309        8.63266
H        101.07175       40.10314        6.87134
H        100.53042       39.10809        8.25659
N        101.74622       42.83522        7.09896
C        102.55265       43.94058        6.60857
C        102.29378       45.21826        7.37264
O        103.23203       45.82226        7.87265
H        101.06181       42.41758        6.45077
H        102.28360       44.12881        5.54654
H        103.63084       43.67071        6.64443
N        101.02626       45.70112        7.46879
C        100.68625       46.97763        8.09176
C        101.09821       47.01152        9.55934
O        100.70153       46.13876       10.31418
C         99.16321       47.26506        7.96857
C         98.68855       47.35492        6.51315
O         98.86985       48.48331        8.60097
H        100.27420       45.13296        7.05247
H        101.21135       47.79392        7.54779
H         98.61066       46.44246        8.46450
H         97.91620       48.45092        8.87391
H         97.59951       47.57008        6.49601
H         99.22052       48.17246        5.98347
H         98.84522       46.40547        5.96470
N        101.82508       48.06336       10.03781
C        102.10900       48.28409       11.45900
C        101.18119       49.36638       12.03339
O        101.27326       49.66238       13.21657
C        103.61452       48.64429       11.67874
C        104.00096       49.99376       11.00439
C        104.51193       47.48891       11.20005
C        105.41944       50.46799       11.32783
H        102.07649       48.80931        9.37364
H        101.88757       47.36097       12.03998
H        103.77071       48.75626       12.77533
H        103.31296       50.78790       11.36506
H        103.90560       49.92788        9.90121
H        104.41945       47.34430       10.10287
H        105.57672       47.67897       11.44411
H        104.22573       46.54582       11.71155
H        105.55179       50.57464       12.42510
H        106.18324       49.77245       10.92633
H        105.58971       51.45894       10.85477
N        100.26261       49.99352       11.24284
C         99.35167       51.05023       11.67201
C         98.32868       50.53045       12.66531
O         97.78774       49.45737       12.44718
C         98.56974       51.60497       10.44789
C         99.49471       52.20012        9.37537
O         97.68419       52.60715       10.88004
H        100.20632       49.71928       10.25986
H         99.93003       51.89492       12.10788
H         97.99229       50.76174        9.99719
H         96.93605       52.63322       10.22778
H        100.19538       51.44930        8.95793
H         98.88261       52.57837        8.53008
H        100.08491       53.03967        9.79768
N         97.90012       51.32988       13.68777
C         96.76765       50.97650       14.54601
C         95.59984       51.91864       14.27969
O         95.75515       52.88612       13.55188
C         97.16997       51.00291       16.04512
C         97.50496       52.41337       16.56469
O         98.26628       50.14907       16.24355
H         98.33263       52.25755       13.80214
H         96.41751       49.94990       14.30574
H         96.30156       50.62528       16.63390
H         98.31528       49.96501       17.21846
H         97.74954       52.36692       17.64705
H         98.37280       52.84896       16.03002
H         96.63207       53.09179       16.45213
N         94.39515       51.68597       14.87764
C         93.26205       52.61043       14.79310
C         92.02695       52.00155       14.14628
O         91.07909       52.74820       13.92457
C         92.93013       53.13839       16.21079
C         92.53997       52.02212       17.20397
C         92.28804       52.56797       18.61129
C         92.00186       51.41627       19.58803
N         91.81879       51.91378       20.94995
H         94.30359       50.83454       15.44360
H         93.53839       53.48479       14.16555
H         92.10285       53.87944       16.14650
H         93.82861       53.66472       16.60104
H         93.36905       51.29338       17.29336
H         91.63284       51.49017       16.84250
H         91.43066       53.27529       18.59479
H         93.19616       53.10978       18.95555
H         92.85674       50.70239       19.57945
H         91.08825       50.86844       19.26604
H         91.00355       52.56708       20.98803
H         91.63848       51.10446       21.58720
H         92.68440       52.40661       21.26978
N         91.92817       50.67703       13.84727
C         90.73041       50.07026       13.27221
C         90.04991       49.20935       14.31797
O         90.58418       49.03301       15.40785
C         91.12847       49.25293       12.02416
C         91.58829       50.16244       10.87038
C         92.38350       49.38500        9.85832
O         91.89938       48.27814        9.25854
O         93.53746       49.71605        9.63893
H         92.70789       50.04333       14.08139
H         89.98295       50.84490       12.98906
H         90.28828       48.62747       11.65099
H         91.95061       48.56688       12.33094
H         92.25556       50.96125       11.26265
H         90.70496       50.65110       10.40584
N         88.81529       48.69487       14.07679
C         88.08742       47.94602       15.07759
H         87.08780       47.66184       14.68660
H         88.64717       47.02686       15.34916
H         87.94221       48.57317       15.98470
H         88.35770       48.87420       13.16918
Ca        93.58509       46.95195        8.51395
O         95.63233       49.32387        7.39547
H         96.01496       50.21959        7.57372
H         95.15431       49.42328        6.53412
O         92.71906       45.25167       10.87962
H         93.08528       44.33391       10.81869
H         93.42224       45.76833       11.34698
O         94.96776       46.18687        5.76844
H         95.76749       46.27237        5.19117
H         94.77241       45.21619        5.78007

Ca 1.0



