%chk=apoCaM-CA-Ng.loop2.water4.frame214.chk
%nprocshared=20
%mem=10GB
%nosave
#b3lyp/svp scf=(tight,noincore,xqc) Test 
#IOP(5/87=12) Density=Current Pop=(MK,readradii) iop(6/33=2) iop(6/42=6)

apoCaM-CA-Ng.loop2.water4.frame214 

   -2  1 
C         11.72857       15.23999       78.89707
C         10.48736       14.40106       78.88676
O         10.46958       13.37774       78.21959
H         12.51516       14.78679       78.25649
H         11.49690       16.25254       78.51350
H         12.11463       15.32229       79.93438
N          9.41046       14.76756       79.63754
C          8.17895       13.98787       79.70074
C          7.45594       14.05870       78.35794
O          6.72241       15.00958       78.12273
C          7.30342       14.51146       80.86926
C          6.07544       13.69220       81.16575
O          5.80374       12.69349       80.51848
O          5.27451       14.05854       82.18490
H          9.49646       15.61589       80.21945
H          8.45134       12.93608       79.94505
H          6.99891       15.56205       80.66811
H          7.92104       14.50903       81.79447
N          7.67126       13.10829       77.40190
C          7.06734       13.15631       76.07096
C          7.47542       14.42537       75.33662
O          8.66372       14.64591       75.14728
C          7.49521       11.93230       75.25178
H          8.30154       12.32390       77.62783
H          5.96157       13.11726       76.18203
H          8.59900       11.91534       75.11728
H          7.18891       11.00073       75.77348
H          7.01211       11.95070       74.25168
N          6.52801       15.31407       74.91496
C          6.83366       16.59704       74.28896
C          6.18773       16.68959       72.91754
O          4.97741       16.53818       72.81803
C          6.31569       17.72164       75.20843
C          6.63770       19.10125       74.69499
O          6.18289       19.49269       73.63188
O          7.40605       19.92726       75.42772
H          5.53464       15.09306       75.08598
H          7.93235       16.73437       74.18595
H          6.78984       17.59953       76.20608
H          5.21543       17.63288       75.34036
N          6.94062       16.99945       71.82184
C          6.38110       17.19993       70.49447
C          7.01571       16.26114       69.50266
O          6.30831       15.45972       68.90873
H          7.95442       17.14556       71.93965
H          6.57653       18.24641       70.17219
H          5.27834       17.05654       70.49159
N          8.35422       16.33249       69.25100
C          9.04312       15.49534       68.27742
C         10.17326       14.72078       68.93838
O         11.01951       15.31544       69.59165
C          9.59407       16.37464       67.14215
C         10.32495       15.54357       66.11208
N         11.63379       15.76524       65.85010
O          9.73160       14.65449       65.51869
H          8.91108       17.04376       69.74982
H          8.33509       14.77766       67.80576
H         10.27233       17.14696       67.56479
H          8.74869       16.89533       66.64122
H         12.15299       16.50719       66.34149
H         12.13330       15.18802       65.15757
N         10.26407       13.37560       68.74306
C         11.32850       12.52027       69.24609
C         12.69071       12.82092       68.64869
O         12.89412       13.87357       68.06044
H          9.53402       12.91335       68.18017
H         11.07588       11.48178       68.94262
H         11.37508       12.54549       70.35629
N         13.67718       11.88127       68.74014
C         15.02669       12.08301       68.21086
C         15.72117       13.20973       68.95791
O         16.41968       13.99567       68.33248
C         15.86781       10.77516       68.18958
C         16.14538       10.14605       69.56283
O         15.27681        9.83061       67.32903
H         13.44277       10.98531       69.19062
H         14.94116       12.38192       67.14137
H         16.85851       11.02605       67.74998
H         14.45177        9.48742       67.76014
H         16.70296       10.85177       70.20859
H         15.20711        9.84681       70.07235
H         16.76833        9.23528       69.42821
N         15.47352       13.40436       70.28412
C         15.89592       14.58042       71.03530
C         14.65183       15.34869       71.46841
O         13.55140       14.88219       71.19640
C         16.86412       14.23092       72.20951
C         16.31457       13.33332       73.35819
C         18.19697       13.69338       71.66264
C         16.17829       11.82559       73.09251
H         14.85170       12.73967       70.75626
H         16.45117       15.27595       70.36745
H         17.10641       15.20179       72.69385
H         15.34851       13.74044       73.72478
H         17.04202       13.41261       74.19654
H         18.92130       13.53834       72.49035
H         18.05365       12.73601       71.12147
H         18.64126       14.42405       70.95313
H         17.14839       11.38498       72.78291
H         15.87286       11.32276       74.03379
H         15.41042       11.56889       72.35049
N         14.73557       16.55544       72.10390
C         13.55151       17.35075       72.42218
C         13.65391       18.71432       71.74431
O         13.47552       19.74071       72.38253
C         13.38153       17.39221       73.95214
C         12.09995       18.03595       74.39327
O         11.02625       17.60082       74.00790
O         12.13171       19.06000       75.26416
H         15.66104       16.93873       72.35013
H         12.64371       16.86285       72.00483
H         14.25107       17.90385       74.41973
H         13.35920       16.34364       74.32272
N         13.97225       18.76974       70.41877
C         14.09447       19.99052       69.61692
C         15.04976       20.99534       70.26595
O         16.13022       20.57872       70.66243
C         14.65697       19.59945       68.22564
C         14.70054       20.74420       67.24404
C         13.51291       21.23242       66.67249
C         15.92791       21.31940       66.87305
C         13.55392       22.28156       65.74886
C         15.96351       22.37423       65.95605
C         14.77802       22.85364       65.39288
H         14.15847       17.86955       69.94928
H         13.08178       20.42512       69.49715
H         14.05414       18.78518       67.76684
H         15.68115       19.19212       68.38190
H         12.55804       20.79527       66.93735
H         16.85552       20.95959       67.30027
H         12.63684       22.65007       65.30770
H         16.91103       22.81869       65.68033
H         14.80839       23.66659       64.67897
N         14.76887       22.33728       70.37539
C         15.71255       23.30737       70.92408
C         15.93439       23.16132       72.41711
O         16.88254       23.72917       72.94020
C         15.03680       24.66398       70.66265
C         14.20961       24.37523       69.42687
C         13.63169       23.01146       69.78356
H         16.65921       23.21465       70.34580
H         14.29824       24.87868       71.47224
H         15.73432       25.52590       70.59586
H         13.44783       25.14737       69.18659
H         14.89894       24.25795       68.55961
H         12.84060       23.12200       70.55892
H         13.21525       22.53284       68.88353
N         14.98755       22.55039       73.18160
C         14.98961       22.56205       74.63851
C         15.95744       21.54849       75.23052
O         16.08164       21.51808       76.44782
C         13.55009       22.30468       75.14232
C         12.59366       23.42195       74.67045
C         11.16899       23.12961       75.02605
O         10.60529       22.16321       74.53965
O         10.48749       23.96097       75.83607
H         14.15718       22.17187       72.70714
H         15.28260       23.57600       74.99351
H         13.52601       22.27106       76.25393
H         13.21235       21.32084       74.75429
H         12.62715       23.54754       73.56830
H         12.90810       24.38191       75.13356
N         16.67651       20.68492       74.45752
C         17.59513       19.72808       75.03624
H         18.39184       20.25951       75.59968
H         17.05004       19.04419       75.72132
H         18.06980       19.12382       74.23428
H         16.57753       20.68895       73.43318
Ca        10.21696       19.88916       76.11892
O         12.00715       18.96115       78.35323
H         11.86966       18.82783       79.32439
H         12.78059       19.57601       78.29030
O         10.46331       22.08158       78.28884
H         11.30256       22.60686       78.29217
H          9.77868       22.70169       78.64541
O          8.29879       19.77925       78.63370
H          7.88992       18.88197       78.54526
H          8.88693       19.70759       79.42706
O          9.52806       17.16729       77.05489
H          9.53015       17.01347       76.07849
H          8.80825       16.58159       77.39559

Ca 1.0



