%chk=apoCaM-CA-Ng.loop4.water4.frame127.chk
%nprocshared=20
%mem=10GB
%nosave
#b3lyp/svp scf=(tight,noincore,xqc) Test 
#IOP(5/87=12) Density=Current Pop=(MK,readradii) iop(6/33=2) iop(6/42=6)

apoCaM-CA-Ng.loop4.water4.frame127 

   -3  1 
C         48.59505       63.34763       15.89402
C         49.15017       64.08459       17.10673
O         49.95591       63.21063       17.84934
H         47.99491       64.04100       15.26801
H         49.43543       62.96174       15.27961
H         47.95673       62.49984       16.22065
N         48.06843       64.68750       17.92257
C         48.53881       65.71191       18.88728
C         49.78834       66.49993       18.36645
O         50.77234       66.61578       19.33826
C         48.56454       65.17978       20.35315
C         49.27876       63.88618       20.62147
O         50.32634       63.85399       21.46618
O         48.84722       62.84088       20.16138
H         47.43262       65.18655       17.25655
H         47.74694       66.49245       18.98373
H         47.51523       65.00528       20.67847
H         48.97203       65.97660       21.01299
N         49.40362       67.77338       17.72517
C         50.40946       68.61685       17.02585
C         50.98683       69.66430       17.97362
O         50.64472       70.82937       17.82022
C         51.48449       67.85249       16.18809
C         52.39642       68.82122       15.37680
C         50.85775       66.82005       15.23347
C         51.68344       69.66980       14.31163
H         48.68024       67.51607       17.01186
H         49.81171       69.20089       16.29087
H         52.14030       67.29351       16.88640
H         53.16739       68.21900       14.85397
H         52.92520       69.50758       16.07147
H         50.13949       67.29161       14.53318
H         51.65090       66.30832       14.64708
H         50.31835       66.04073       15.79510
H         51.19000       69.03325       13.54899
H         50.93406       70.34964       14.76366
H         52.42892       70.30054       13.78347
N         51.83694       69.34177       18.98810
C         52.28158       70.31059       19.98022
C         53.41652       71.19206       19.45755
O         53.22964       72.40050       19.47623
C         52.57164       69.62608       21.33978
C         51.31971       69.01267       21.91897
O         51.26892       67.69654       22.19384
O         50.34799       69.71138       22.16132
H         52.14376       68.37211       19.10272
H         51.43240       70.99415       20.21513
H         52.93533       70.38640       22.06366
H         53.33735       68.83527       21.25533
N         54.61532       70.73631       18.98062
C         54.97311       69.33177       18.86393
C         56.39645       69.09598       18.37344
O         57.07741       70.05792       18.04756
H         55.29772       71.45301       18.69067
H         54.27184       68.84035       18.16172
H         54.90168       68.90674       19.85861
N         56.95974       67.84948       18.27469
C         56.35139       66.56368       18.62794
C         55.09229       66.33509       17.80154
O         54.01566       66.25390       18.37465
C         56.14617       66.40884       20.15655
C         57.40130       66.73417       20.91893
O         58.42918       66.10795       20.71549
O         57.39598       67.72711       21.82929
H         57.92382       67.80245       17.90778
H         57.07361       65.75394       18.38303
H         55.85698       65.36034       20.37772
H         55.32931       67.03364       20.54353
N         55.11783       66.25689       16.43624
C         56.33356       66.20450       15.63938
C         56.52193       67.41199       14.76239
O         55.68699       68.30387       14.72838
H         54.22254       66.18827       15.93045
H         56.31267       65.28874       15.01082
H         57.23594       66.13305       16.26901
N         57.67919       67.51278       14.05422
C         58.02131       68.65803       13.21780
C         57.21039       68.67922       11.92465
O         57.22887       69.68692       11.23178
C         59.53448       68.58109       12.91269
C         60.12614       69.79642       12.18463
C         61.61792       69.65820       11.97623
N         62.30550       70.64663       11.36250
O         62.21412       68.65916       12.35515
H         58.37368       66.75718       14.17134
H         57.82709       69.57996       13.81103
H         59.73614       67.65936       12.32085
H         60.06398       68.49334       13.88851
H         59.93275       70.70903       12.78904
H         59.65748       69.91467       11.18764
H         61.82404       71.49684       11.03611
H         63.32205       70.56075       11.21463
N         56.52470       67.57733       11.50738
C         55.82209       67.47832       10.23370
C         56.45919       66.41501        9.34085
O         55.92938       66.19087        8.26215
C         54.30887       67.18959       10.45628
C         53.59766       68.40335       11.06718
C         54.06311       65.94763       11.32169
H         56.54604       66.72859       12.08884
H         55.89164       68.42793        9.65703
H         53.83751       67.01562        9.46305
H         54.01307       68.65229       12.06579
H         53.71147       69.28325       10.39784
H         52.51063       68.19536       11.17026
H         52.97428       65.73956       11.38356
H         54.57020       65.06136       10.88617
H         54.43361       66.10701       12.35500
N         57.61499       65.76082        9.68380
C         58.25608       64.78309        8.80660
C         58.48100       63.43165        9.48336
O         58.93973       62.53048        8.79127
C         59.62437       65.33779        8.34793
C         59.52128       66.70359        7.71139
N         58.80180       66.89739        6.58209
O         60.10341       67.64820        8.22441
H         58.10292       66.00244       10.55643
H         57.62814       64.60262        7.90786
H         60.09518       64.64031        7.62096
H         60.29372       65.41114        9.23455
H         58.30778       66.11622        6.12830
H         58.74100       67.83546        6.15815
N         58.27327       63.22250       10.82114
C         58.67924       61.99438       11.50247
C         57.57779       61.44947       12.40672
O         57.14929       62.15335       13.31164
C         59.89923       62.29928       12.39688
C         61.07222       62.89839       11.65445
C         61.80251       62.15536       10.70927
C         61.45968       64.22021       11.93187
C         62.90820       62.72785       10.06551
C         62.55568       64.79035       11.28372
C         63.28868       64.04465       10.35184
O         64.35939       64.58165        9.73246
H         57.93097       63.99134       11.41407
H         58.98981       61.21561       10.77052
H         60.24052       61.37289       12.90928
H         59.57232       63.01203       13.18507
H         61.53002       61.13205       10.48242
H         60.91157       64.81388       12.65244
H         63.47556       62.14670        9.34864
H         62.83627       65.81038       11.51298
H         64.65838       65.48446        9.91529
N         57.15178       60.15990       12.27820
C         56.30356       59.44415       13.23809
C         54.87838       59.95501       13.39787
O         54.14999       59.32627       14.15567
C         56.95498       59.38061       14.64017
C         58.36881       58.79204       14.62954
C         58.88273       58.65292       16.03472
O         58.30816       57.92491       16.82962
O         59.98054       59.32715       16.42493
H         57.53381       59.59987       11.50001
H         56.21395       58.39586       12.87156
H         56.31808       58.73340       15.28458
H         56.98346       60.39129       15.10129
H         59.04274       59.45996       14.05263
H         58.36385       57.78969       14.15070
N         54.37433       61.02580       12.72295
C         52.97984       61.43425       12.87183
C         52.13180       60.87457       11.74375
O         50.93452       61.12709       11.74231
C         52.86380       62.96949       12.95106
C         53.66571       63.63015       14.08680
C         53.21592       63.21155       15.45664
O         52.68099       64.12055       16.28952
O         53.35734       62.06116       15.83533
H         54.94978       61.50866       12.01875
H         52.53601       61.00708       13.79537
H         51.79455       63.25439       13.07194
H         53.21971       63.38606       11.98796
H         53.51632       64.72667       14.00120
H         54.75072       63.42630       13.97369
N         52.66323       60.06422       10.78023
C         51.87968       59.45798        9.72653
H         50.80743       59.73778        9.77923
H         52.28426       59.77496        8.74387
H         51.95761       58.35318        9.80998
H         53.66581       59.83083       10.78507
Ca        51.51125       64.57435       18.79968
O         53.42303       65.22459       21.45598
H         53.36361       65.07993       22.43327
H         52.65942       65.81465       21.24260
O         53.13770       62.28387       21.16686
H         53.59723       62.45008       22.02771
H         52.29638       61.82716       21.41902
O         51.83944       61.16560       18.70415
H         51.24421       60.84816       17.97979
H         52.74040       61.18324       18.29566
O         54.91673       63.20702       18.73695
H         54.87620       62.55100       17.99783
H         55.88337       63.38762       18.84865

Ca 1.0



