%chk=apoCaM-CA-Ng.loop2.water4.frame1127.chk
%nprocshared=20
%mem=10GB
%nosave
#b3lyp/svp scf=(tight,noincore,xqc) Test 
#IOP(5/87=12) Density=Current Pop=(MK,readradii) iop(6/33=2) iop(6/42=6)

apoCaM-CA-Ng.loop2.water4.frame1127 

   -2  1 
C        102.35615       67.20328       65.42952
C        103.03007       68.35663       66.11487
O        102.75676       68.57698       67.28574
H        101.76469       67.57263       64.56606
H        103.11791       66.47377       65.08399
H        101.66707       66.68511       66.13029
N        103.93056       69.16183       65.48551
C        104.35452       69.02800       64.09387
C        103.97863       70.29000       63.32586
O        103.17377       71.06371       63.82867
C        105.86213       68.68058       64.03522
C        106.78300       69.77749       64.49097
O        107.59454       70.24380       63.70801
O        106.75470       70.22278       65.76103
H        104.33890       69.93315       66.03489
H        103.84654       68.18026       63.59111
H        106.12697       68.41218       62.99011
H        106.05072       67.77127       64.64500
N        104.53886       70.58422       62.11343
C        104.22525       71.77200       61.32322
C        104.51930       73.10014       62.02497
O        104.26098       74.12361       61.40564
C        102.76800       71.71390       60.84302
H        105.22930       69.93818       61.70769
H        104.85649       71.74959       60.40598
H        102.59867       70.77049       60.28093
H        102.05331       71.76209       61.68881
H        102.55484       72.56054       60.15534
N        105.06154       73.18732       63.28120
C        105.32558       74.46089       63.94687
C        106.83101       74.61202       64.25390
O        107.60822       73.84161       63.38545
C        104.48602       74.57003       65.23537
C        104.76150       73.45983       66.22028
O        105.98744       73.31040       66.75708
O        103.86797       72.69382       66.54476
H        105.32644       72.33806       63.79386
H        105.02322       75.30061       63.28472
H        103.41009       74.53944       64.95243
H        104.68317       75.54472       65.72940
N        107.25528       76.02517       64.24452
C        108.70714       76.17132       64.44100
C        109.10709       76.02377       65.88758
O        108.79960       75.01489       66.50544
H        107.03944       76.40785       63.29355
H        109.01607       77.17577       64.07611
H        109.27524       75.44392       63.82488
N        109.85534       76.99463       66.47897
C        110.31612       76.92168       67.85863
C        109.14197       77.01161       68.80341
O        108.36212       77.94826       68.68480
C        111.28824       78.07964       68.16922
C        112.52667       78.01507       67.30836
N        112.84927       79.03709       66.48183
O        113.24928       77.03075       67.36292
H        110.13524       77.80976       65.91133
H        110.87457       75.97240       68.02099
H        111.60794       78.01494       69.23267
H        110.76874       79.05272       68.02603
H        112.25609       79.87734       66.42186
H        113.69748       78.98892       65.89811
N        108.97975       76.10129       69.80673
C        107.91230       76.20668       70.79079
C        107.99924       77.50397       71.58033
O        108.92357       78.27582       71.36358
H        109.64855       75.32112       69.89602
H        107.97775       75.35085       71.49688
H        106.93580       76.16149       70.26189
N        107.06880       77.86349       72.50630
C        105.93673       77.05467       72.93554
C        104.65379       77.72942       72.49905
O        104.45348       78.89548       72.81353
C        105.99729       76.88961       74.47413
C        104.77520       76.14607       75.02330
O        107.14783       76.16620       74.83116
H        107.17437       78.79141       72.94865
H        105.96734       76.03809       72.49141
H        106.01424       77.89036       74.96696
H        107.92799       76.76339       74.69174
H        104.69980       75.13431       74.57258
H        104.86265       76.04610       76.12577
H        103.84087       76.70812       74.80967
N        103.72262       77.02632       71.78923
C        102.46078       77.59589       71.32499
C        101.27825       76.93206       72.03504
O        101.41267       75.78501       72.44156
C        102.33352       77.48085       69.77355
C        102.28269       76.00272       69.29282
C        103.47481       78.26541       69.10003
C        102.03081       75.85050       67.79308
H        103.90991       76.03284       71.58997
H        102.44875       78.67229       71.57284
H        101.37905       77.96049       69.47424
H        101.44586       75.48393       69.80636
H        103.22631       75.47361       69.53969
H        104.46106       77.80967       69.33241
H        103.34671       78.29851       67.99985
H        103.47492       79.31777       69.45553
H        102.86497       76.27302       67.20080
H        101.95289       74.77134       67.54254
H        101.08264       76.35016       67.50672
N        100.07266       77.55300       72.22822
C         99.82593       78.96340       71.93627
C         98.35592       79.27180       71.66906
O         97.49326       78.42230       71.82416
C        100.35220       79.82657       73.11510
C         99.68604       79.49343       74.42664
O         98.48453       79.65300       74.57267
O        100.42204       79.02882       75.45461
H         99.33815       77.02293       72.72179
H        100.34778       79.24373       71.00134
H        100.20856       80.90696       72.90528
H        101.44112       79.66536       73.24109
N         98.03020       80.53442       71.26827
C         96.67607       81.04396       71.09864
C         96.49243       81.53763       69.66464
O         97.35110       82.27882       69.21266
C         96.51956       82.25261       72.04745
C         95.13512       82.84400       71.97894
C         94.90728       84.03055       71.26151
C         94.05942       82.20876       72.62061
C         93.61988       84.56637       71.17830
C         92.77505       82.75702       72.54741
C         92.55496       83.93234       71.82329
H         98.79942       81.20175       71.11018
H         95.92214       80.28596       71.37886
H         97.27117       83.02017       71.75559
H         96.74503       81.97535       73.10066
H         95.72169       84.52910       70.75043
H         94.21802       81.29572       73.18119
H         93.44858       85.47257       70.61200
H         91.94976       82.26932       73.04939
H         91.55947       84.35179       71.76106
N         95.37831       81.26938       68.90546
C         94.19722       80.52678       69.31800
C         94.45980       79.06275       69.57229
O         94.09917       78.56553       70.62812
C         93.22009       80.69851       68.14380
C         93.61850       82.05913       67.61382
C         95.13645       81.93756       67.64041
H         93.75931       81.02187       70.21014
H         93.45037       79.97341       67.33049
H         92.15001       80.58137       68.41839
H         93.19483       82.31790       66.62053
H         93.30817       82.83125       68.35574
H         95.48718       81.27712       66.81613
H         95.60620       82.94121       67.55864
N         95.09582       78.31104       68.62968
C         95.31208       76.88561       68.79185
C         93.98087       76.18280       68.53732
O         93.50349       76.29028       67.41585
C         96.38303       76.32230       67.81437
C         97.82814       76.81793       68.07129
C         98.20290       78.17290       67.52158
O         99.43443       78.65728       67.76563
O         97.45666       78.80304       66.79283
H         95.39916       78.77124       67.76793
H         95.72797       76.71121       69.79834
H         96.10465       76.45493       66.74594
H         96.40702       75.22740       68.01456
H         98.52629       76.10526       67.58245
H         98.03007       76.78411       69.16359
N         93.28038       75.45996       69.46226
C         93.63377       75.23861       70.84993
H         94.56972       75.71933       71.16910
H         92.82056       75.63553       71.49354
H         93.72710       74.14803       71.03151
H         92.39257       75.03142       69.15574
Ca       108.69065       72.54190       64.91840
O        110.15219       70.09756       66.19783
H        110.32263       69.42268       66.90177
H        110.61609       69.74606       65.39675
O        111.25539       73.11519       66.74401
H        111.95241       73.71280       67.11407
H        111.75109       72.48832       66.15975
O        108.43535       72.14734       68.56890
H        107.66780       72.34541       69.16248
H        108.64369       71.19489       68.74236
O        110.83434       72.38680       62.95128
H        111.55764       72.29874       63.62136
H        110.51859       73.32008       63.05091

Ca 1.0



