%chk=apoCaM-CA-Ng.loop3.water2.frame729.chk
%nprocshared=20
%mem=10GB
%nosave
#b3lyp/svp scf=(tight,noincore,xqc) Test 
#IOP(5/87=12) Density=Current Pop=(MK,readradii) iop(6/33=2) iop(6/42=6)

apoCaM-CA-Ng.loop3.water2.frame729 

   0  1 
C         88.31564       -6.12625      -22.49691
C         88.83244       -7.18058      -23.43182
O         88.95670       -6.92770      -24.62058
H         87.37789       -6.47666      -22.01804
H         89.07267       -5.93250      -21.70603
H         88.11764       -5.17594      -23.03561
N         89.19531       -8.39207      -22.93495
C         89.78437       -9.45480      -23.74316
C         88.73806      -10.04812      -24.67890
O         87.74375      -10.56986      -24.19191
C         90.37090      -10.50503      -22.78529
C         91.21438      -11.56404      -23.41639
O         91.73383      -12.39559      -22.69092
O         91.43042      -11.63529      -24.74288
H         89.10414       -8.53165      -21.91542
H         90.63723       -9.02740      -24.31034
H         89.54991      -10.98732      -22.21021
H         91.03453       -9.97578      -22.06648
N         88.87032       -9.96087      -26.03630
C         87.81791      -10.40659      -26.95169
C         87.55191      -11.90385      -26.91236
O         86.44650      -12.28248      -27.27630
C         88.04624       -9.91747      -28.40137
C         89.30791      -10.49561      -29.07231
C         89.52852       -9.98218      -30.50975
C         89.71581       -8.45762      -30.57684
N         90.11434       -8.01966      -31.91341
H         89.69828       -9.47940      -26.41471
H         86.88172       -9.90441      -26.61482
H         88.11462       -8.81122      -28.35965
H         87.15998      -10.18202      -29.02086
H         89.22387      -11.60298      -29.11440
H         90.20706      -10.24387      -28.47257
H         88.68216      -10.28186      -31.16508
H         90.45301      -10.46878      -30.89085
H         90.50554       -8.17156      -29.86223
H         88.77639       -7.93742      -30.29253
H         91.02971       -8.45367      -32.17439
H         89.38285       -8.27762      -32.61387
H         90.22938       -6.97982      -31.90780
N         88.49999      -12.81601      -26.53333
C         88.22336      -14.25492      -26.48210
C         88.42113      -14.85368      -25.08797
O         88.00241      -15.98562      -24.88929
C         88.99246      -14.99109      -27.59927
C         90.48686      -14.92338      -27.47646
O         91.10851      -15.55997      -26.47128
O         91.14948      -14.34630      -28.32401
H         89.44849      -12.48307      -26.31028
H         87.14848      -14.42552      -26.70828
H         88.69214      -14.52919      -28.56612
H         88.69250      -16.06063      -27.63196
N         89.01467      -14.16225      -24.06952
C         89.05598      -14.62411      -22.68806
C         90.43385      -15.03476      -22.20551
O         90.61649      -15.11608      -20.99928
H         89.41752      -13.23931      -24.25201
H         88.38110      -15.48968      -22.51726
H         88.66868      -13.79806      -22.05194
N         91.39749      -15.45795      -23.07437
C         92.66624      -16.05706      -22.65956
C         93.85997      -15.32532      -23.34067
O         93.76987      -15.38538      -24.74010
C         92.62230      -17.56900      -23.00334
C         91.56039      -18.29989      -22.21165
N         91.90626      -19.26657      -21.32787
O         90.38065      -18.02342      -22.36811
H         91.18173      -15.45576      -24.07653
H         92.81067      -15.96345      -21.56057
H         93.58565      -18.04892      -22.76267
H         92.43957      -17.71289      -24.09061
H         92.89384      -19.51887      -21.17513
H         91.18426      -19.76219      -20.78482
N         95.19010      -15.77326      -22.84719
C         96.31025      -15.32516      -23.69339
C         96.57996      -13.84914      -23.59037
O         96.06829      -13.19519      -22.69241
H         95.24651      -16.81205      -22.85598
H         96.12008      -15.60222      -24.75249
H         97.24378      -15.85529      -23.40270
N         97.37783      -13.25560      -24.52653
C         97.68577      -11.82335      -24.55451
C         96.41764      -10.97822      -24.60200
O         95.33764      -11.54179      -24.68067
C         98.58596      -11.50491      -25.77380
C         99.93016      -12.19186      -25.69395
C        100.82894      -11.86039      -24.66600
C        100.30820      -13.15097      -26.65025
C        102.08213      -12.47462      -24.59501
C        101.56223      -13.76768      -26.57482
C        102.45352      -13.43099      -25.55027
O        103.66144      -14.02791      -25.49539
H         97.76493      -13.85923      -25.26915
H         98.21577      -11.55908      -23.61404
H         98.78040      -10.41540      -25.85169
H         98.04232      -11.81201      -26.69570
H        100.56310      -11.11861      -23.92375
H         99.63513      -13.42359      -27.45359
H        102.76421      -12.20322      -23.79917
H        101.84349      -14.50568      -27.31590
H        104.30874      -13.81685      -24.80717
N         96.48824       -9.61160      -24.51668
C         95.34982       -8.69225      -24.38587
C         94.30445       -8.82215      -25.49208
O         93.74892       -9.88925      -25.69731
C         94.72567       -8.67753      -22.94916
C         95.70347       -7.98781      -21.96027
C         94.29303      -10.05653      -22.43140
C         95.11069       -7.74793      -20.57028
H         97.42384       -9.17908      -24.49645
H         95.75560       -7.66342      -24.50089
H         93.82009       -8.03169      -23.00340
H         95.96068       -6.98360      -22.36458
H         96.64353       -8.57316      -21.86726
H         93.61819      -10.53989      -23.15558
H         95.17557      -10.70270      -22.24724
H         93.73693       -9.97121      -21.47666
H         94.16941       -7.16255      -20.64902
H         94.91150       -8.70289      -20.04466
H         95.83409       -7.16951      -19.95779
N         93.92935       -7.71315      -26.19736
C         92.91586       -7.73138      -27.24736
C         93.41567       -7.11206      -28.55508
O         92.69854       -7.19323      -29.54118
C         91.68249       -6.97634      -26.73131
O         90.62849       -7.05893      -27.64868
H         94.32765       -6.80246      -25.92632
H         92.61240       -8.77993      -27.46096
H         91.94037       -5.91015      -26.54751
H         91.37532       -7.44468      -25.77214
H         89.81199       -6.76651      -27.16734
N         94.60039       -6.43941      -28.64798
C         95.04557       -5.79396      -29.88056
C         95.39177       -6.82281      -30.94307
O         95.88005       -7.88155      -30.57191
C         96.27927       -4.94182      -29.60376
H         95.19282       -6.33073      -27.81491
H         94.23862       -5.11278      -30.22000
H         97.10762       -5.55827      -29.19804
H         96.61939       -4.48003      -30.54506
H         96.02551       -4.14057      -28.87615
N         95.17322       -6.64278      -32.28134
C         94.62038       -5.45342      -32.92994
C         95.42023       -5.10931      -34.18717
O         95.64338       -6.01670      -34.97763
C         93.18533       -5.77205      -33.34893
H         95.37667       -7.45058      -32.89226
H         94.56430       -4.58816      -32.24933
H         92.72914       -4.89112      -33.84927
H         93.15614       -6.63923      -34.04358
H         92.58199       -6.01746      -32.44949
N         95.81813       -3.84649      -34.53701
C         95.56690       -2.62588      -33.77904
C         96.40045       -2.57125      -32.51807
O         95.84478       -2.32075      -31.45790
C         95.74948       -1.33144      -34.62984
C         97.16094       -0.91473      -35.09936
C         97.76397       -1.82513      -36.12813
O         98.94688       -2.42382      -35.89369
O         97.20023       -2.00162      -37.19676
H         96.26112       -3.75557      -35.46048
H         94.48569       -2.59991      -33.51290
H         95.38290       -0.49108      -33.99836
H         95.07580       -1.38351      -35.51348
H         97.83736       -0.80553      -34.22756
H         97.07869        0.08994      -35.56872
N         97.74525       -2.79447      -32.56388
C         98.61426       -2.73530      -31.40650
H         99.40744       -1.97922      -31.58268
H         98.06902       -2.46016      -30.47981
H         99.09153       -3.72657      -31.25599
H         98.18422       -3.03348      -33.46393
Ca        92.61458      -13.48344      -25.22549
O         93.29448      -11.31223      -28.37169
H         94.19748      -10.93445      -28.22071
H         93.28152      -11.54435      -29.33387
O         94.77685      -13.95413      -27.54333
H         95.61837      -14.44986      -27.38120
H         94.70366      -13.90316      -28.52960

Ca 1.0



