%chk=apoCaM-CA-Ng.loop2.water3.frame369.chk
%nprocshared=20
%mem=10GB
%nosave
#b3lyp/svp scf=(tight,noincore,xqc) Test 
#IOP(5/87=12) Density=Current Pop=(MK,readradii) iop(6/33=2) iop(6/42=6)

apoCaM-CA-Ng.loop2.water3.frame369 

   -2  1 
C         38.59003       86.79645       24.29100
C         37.78094       85.53429       24.38935
O         36.65301       85.50576       23.91811
H         39.52986       86.60102       23.73295
H         38.02161       87.59350       23.76576
H         38.84243       87.15852       25.30922
N         38.31082       84.43230       24.98667
C         37.58137       83.17572       25.12665
C         36.38014       83.31771       26.04740
O         36.52715       83.83949       27.14458
C         38.48383       82.02739       25.64056
C         39.00269       82.19213       27.04531
O         38.63093       81.31988       28.00208
O         39.78027       83.08870       27.32238
H         39.28330       84.49042       25.32314
H         37.24861       82.84785       24.11642
H         39.34298       81.88770       24.95033
H         37.87640       81.09546       25.61042
N         35.18020       82.76570       25.70481
C         34.05245       82.71379       26.63292
C         33.46695       84.08480       26.90753
O         33.87049       85.05473       26.28303
C         32.96825       81.77170       26.09733
H         35.10561       82.27745       24.79887
H         34.42011       82.28569       27.59282
H         33.40120       80.76082       25.93736
H         32.13536       81.66976       26.82414
H         32.56414       82.14816       25.13413
N         32.51042       84.23012       27.86898
C         31.93859       85.51355       28.25005
C         30.43586       85.47444       28.04533
O         29.68773       85.61417       29.00445
C         32.31830       85.81725       29.71653
C         33.80885       85.79151       29.89959
O         34.31873       84.99501       30.67156
O         34.59244       86.61674       29.18336
H         32.20076       83.39765       28.39375
H         32.34352       86.33942       27.62316
H         31.85887       85.05814       30.38842
H         31.93514       86.82063       30.00378
N         29.92242       85.30077       26.79358
C         28.49371       85.25617       26.52227
C         28.08878       86.44585       25.69331
O         27.55301       86.27489       24.60786
H         30.56982       85.21477       25.99475
H         27.89867       85.28926       27.45952
H         28.24855       84.30256       26.00583
N         28.32744       87.69912       26.16878
C         27.97269       88.93123       25.47679
C         29.24337       89.66580       25.10203
O         30.07244       89.89861       25.97017
C         27.10651       89.81465       26.39595
C         25.76611       89.19255       26.69621
N         24.87067       88.97112       25.70482
O         25.47580       88.90834       27.84854
H         28.80695       87.78866       27.07863
H         27.39994       88.72292       24.54713
H         26.92196       90.79671       25.90932
H         27.65766       90.00059       27.34535
H         25.08836       89.22383       24.72991
H         23.94827       88.56114       25.91335
N         29.46435       90.04230       23.80837
C         30.68014       90.69015       23.33633
C         30.90529       92.06462       23.93569
O         31.06212       92.17503       25.14300
H         28.74545       89.82404       23.10114
H         30.61252       90.78639       22.23067
H         31.55306       90.04174       23.56032
N         30.96832       93.17130       23.13640
C         31.20902       94.50840       23.68089
C         32.60387       94.65240       24.29528
O         32.83317       95.65649       24.95595
C         30.97194       95.62219       22.62182
C         32.01287       95.63856       21.48841
O         29.66266       95.54571       22.11025
H         30.80915       93.05520       22.12558
H         30.45494       94.66801       24.48488
H         31.05936       96.60793       23.12990
H         29.64562       94.87222       21.38153
H         32.03857       94.67340       20.94132
H         31.77864       96.45201       20.77076
H         33.01467       95.84894       21.90541
N         33.58444       93.71455       24.11089
C         34.92181       93.80862       24.69111
C         35.11183       92.64228       25.63719
O         34.91556       91.50409       25.23008
C         36.02779       93.79502       23.59576
C         35.83521       94.88889       22.51712
C         37.42941       93.90909       24.23268
C         35.81918       96.33122       23.03763
H         33.38962       92.88368       23.53389
H         35.03501       94.75424       25.26362
H         35.98457       92.81972       23.06082
H         34.88793       94.68911       21.98170
H         36.65047       94.79852       21.76676
H         37.53160       94.84804       24.81597
H         37.62383       93.06006       24.92084
H         38.21395       93.88556       23.44753
H         34.98249       96.49539       23.74382
H         36.77429       96.59157       23.53642
H         35.67860       97.02599       22.18332
N         35.49360       92.86335       26.92553
C         35.66573       91.79003       27.90367
C         35.80022       92.35837       29.32692
O         36.46892       91.76164       30.15589
C         36.90199       90.94081       27.49471
C         37.05924       89.65043       28.24755
O         36.15663       89.25743       29.16695
O         38.00897       88.92821       27.99382
H         35.66475       93.84066       27.19892
H         34.74259       91.16924       27.88786
H         37.81758       91.56123       27.61932
H         36.83947       90.65333       26.42618
N         35.19312       93.53248       29.67208
C         35.32396       94.18137       30.97278
C         36.79544       94.38798       31.33766
O         37.50834       94.98292       30.53874
C         34.65021       95.57344       30.89582
C         34.71049       96.31716       32.20341
C         35.64333       97.35260       32.38482
C         33.83679       95.98420       33.24980
C         35.70651       98.03758       33.60014
C         33.89173       96.68408       34.45899
C         34.82845       97.70695       34.63532
H         34.61372       94.01463       28.97191
H         34.80125       93.56661       31.73285
H         33.58993       95.50136       30.56812
H         35.18204       96.15847       30.11124
H         36.33238       97.61787       31.59211
H         33.10690       95.19428       33.12256
H         36.43596       98.82517       33.73772
H         33.20833       96.43344       35.25943
H         34.87411       98.24394       35.57343
N         37.32177       93.99166       32.54005
C         38.67353       94.32377       32.96239
C         39.73446       93.40577       32.37640
O         40.90725       93.70028       32.55824
C         38.59844       94.19590       34.48742
C         37.63980       93.03099       34.65061
C         36.57296       93.35810       33.60808
H         38.92485       95.37635       32.70081
H         39.57556       94.09780       35.00756
H         38.07759       95.09580       34.88843
H         38.17637       92.10947       34.32930
H         37.24359       92.86947       35.67544
H         36.06170       92.42330       33.29367
H         35.83739       94.09264       34.00134
N         39.41795       92.26292       31.70196
C         40.44086       91.37995       31.14808
C         41.11146       91.98410       29.91940
O         42.07252       91.39291       29.44541
C         39.83836       90.00932       30.77725
C         39.30214       89.26293       32.00980
C         38.70595       87.94013       31.62868
O         39.38919       87.08809       31.08277
O         37.41415       87.68119       31.90751
H         38.43174       91.98685       31.62737
H         41.21719       91.20286       31.92643
H         40.62360       89.37522       30.30806
H         39.02469       90.16436       30.04187
H         38.52263       89.86781       32.51851
H         40.13235       89.08676       32.72740
N         40.66127       93.13345       29.33337
C         41.27516       93.72394       28.16088
H         42.15867       93.15220       27.80727
H         40.53121       93.76268       27.33761
H         41.60135       94.75759       28.39977
H         39.83612       93.62065       29.70815
Ca        36.82858       86.37609       29.31656
O         35.80995       87.48862       26.54540
H         35.74355       86.70645       25.94758
H         34.94981       87.96366       26.42917
O         37.86202       83.67670       30.33577
H         38.06211       83.90546       29.39387
H         36.90671       83.41648       30.32903
O         39.46542       86.47466       27.94847
H         40.23151       86.91762       27.50617
H         39.48807       85.54606       27.61313

Ca 1.0



