%chk=apoCaM-CA-Ng.loop1.water3.frame1362.chk
%nprocshared=20
%mem=10GB
%nosave
#b3lyp/svp scf=(tight,noincore,xqc) Test 
#IOP(5/87=12) Density=Current Pop=(MK,readradii) iop(6/33=2) iop(6/42=6)

apoCaM-CA-Ng.loop1.water3.frame1362 

   0  1 
C         79.13412       42.72872       73.34656
C         78.74416       43.92885       74.15625
O         78.18626       44.86506       73.60558
H         80.23087       42.57098       73.40801
H         78.61335       41.83265       73.74623
H         78.84629       42.85944       72.28149
N         78.99520       43.95070       75.49362
C         78.61052       45.04245       76.38287
C         79.83178       45.63160       77.07698
O         79.67565       46.29017       78.09670
C         77.60856       44.51001       77.42785
C         76.35953       43.96121       76.79177
O         75.16794       44.53417       77.04550
O         76.41289       42.98586       76.05944
H         79.46484       43.13399       75.91635
H         78.10316       45.86643       75.83822
H         77.31396       45.34781       78.09787
H         78.08197       43.71784       78.04743
N         81.08225       45.46509       76.55988
C         82.29647       45.95363       77.20568
C         82.21407       47.44269       77.51526
O         82.41214       47.76788       78.67853
C         83.55803       45.51968       76.42023
C         83.68017       43.97911       76.48840
C         84.87129       43.40666       75.71966
C         84.90542       41.87772       75.90265
N         86.00298       41.27068       75.15445
H         81.17918       44.97265       75.66085
H         82.38708       45.45280       78.19773
H         84.46360       45.95536       76.89749
H         83.51246       45.87308       75.36876
H         82.76463       43.50188       76.08185
H         83.77582       43.68455       77.55773
H         85.81763       43.84820       76.09995
H         84.76256       43.65271       74.64097
H         83.94403       41.43666       75.55419
H         85.02304       41.63726       76.98375
H         85.88092       41.45218       74.13197
H         86.91815       41.65637       75.48075
H         85.99218       40.23735       75.31753
N         81.83270       48.42103       76.64416
C         81.50317       48.28503       75.22572
C         80.00701       48.41473       74.99376
O         79.24854       48.63559       75.92714
C         82.30781       49.31840       74.39365
C         82.37534       50.66619       75.06661
O         81.28206       51.40808       75.36415
O         83.45574       51.01742       75.51385
H         81.70887       49.35543       77.06404
H         81.75571       47.27292       74.85512
H         81.94156       49.40448       73.35150
H         83.35274       48.93857       74.33598
N         79.51612       48.18067       73.74406
C         78.10450       48.08574       73.41209
C         77.31933       49.36320       73.55821
O         77.84649       50.36667       73.99475
H         80.18261       47.96409       72.98733
H         77.62618       47.30443       74.03462
H         78.02761       47.77574       72.34706
N         76.02185       49.37255       73.14541
C         75.11943       50.53144       73.16221
C         73.87021       50.20097       72.34327
O         73.42523       49.06227       72.40181
C         74.65113       50.91671       74.58418
C         75.73343       51.42119       75.48896
O         76.35986       52.42905       75.20021
O         75.99039       50.78320       76.64591
H         75.68594       48.49109       72.72783
H         75.64223       51.38758       72.70146
H         74.15225       50.04111       75.05252
H         73.90336       51.73611       74.50405
N         73.19002       51.10620       71.58106
C         73.45629       52.52886       71.46388
C         74.78414       52.83946       70.83182
O         75.08800       52.30579       69.77426
H         72.36225       50.76115       71.06952
H         73.35443       53.01864       72.45600
H         72.67797       52.96613       70.80147
N         75.60586       53.75802       71.41095
C         76.87262       54.16279       70.82243
C         77.96440       53.11924       71.21477
O         78.04512       53.15047       72.62731
C         77.23565       55.61537       71.27019
C         76.14417       56.62775       70.88672
O         78.43367       56.01617       70.66089
H         75.28274       54.23683       72.26639
H         76.75614       54.20005       69.71513
H         77.35781       55.62633       72.37784
H         78.73887       56.83008       71.14044
H         75.17770       56.39028       71.37496
H         76.44575       57.64554       71.21758
H         76.00177       56.64570       69.78544
N         79.23083       53.43412       70.50730
C         80.27057       52.38731       70.32881
C         81.44723       52.75692       71.20875
O         81.29669       52.76208       72.40580
C         79.78860       50.90779       70.52524
C         78.62123       50.48402       69.58111
C         80.96991       49.93051       70.34938
C         78.90417       50.61998       68.08089
H         78.96783       53.71858       69.53325
H         80.65471       52.45645       69.28521
H         79.42599       50.78595       71.56923
H         77.70840       51.06935       69.79616
H         78.36395       49.42256       69.79306
H         81.41396       50.00930       69.33569
H         81.77265       50.14283       71.08362
H         80.63570       48.88439       70.51616
H         79.08115       51.67967       67.80590
H         79.77229       50.00507       67.77065
H         78.01889       50.26743       67.50985
N         82.65906       53.11068       70.70312
C         83.74415       53.56248       71.57571
C         84.07318       55.00006       71.23698
O         85.21053       55.34198       70.94911
C         84.92695       52.56868       71.55167
C         85.54416       52.37974       70.16563
O         84.48719       51.31423       72.00841
H         82.80458       53.10581       69.68305
H         83.41626       53.59707       72.63967
H         85.72816       52.94613       72.22995
H         84.39800       51.37804       72.99493
H         84.79982       51.96424       69.45599
H         85.93580       53.33335       69.76240
H         86.38965       51.66497       70.23975
N         83.06336       55.90894       71.27327
C         83.20240       57.32065       70.96708
C         82.85025       58.07616       72.23418
O         81.79798       58.69296       72.31453
C         82.31803       57.66823       69.74030
C         82.74915       56.85327       68.50975
O         80.96779       57.40789       70.01743
H         82.12115       55.58028       71.53203
H         84.24678       57.58719       70.69066
H         82.45314       58.75313       69.52235
H         80.43716       57.84672       69.30135
H         82.60526       55.76529       68.68807
H         82.13834       57.13930       67.62773
H         83.81796       57.03958       68.27377
N         83.71450       58.01888       73.29162
C         83.46194       58.52750       74.63844
C         82.50313       57.61669       75.36478
O         81.45731       57.28969       74.82305
C         82.94635       59.97043       74.72082
C         83.80518       60.98374       73.96676
C         83.30023       62.39453       74.28700
C         84.00789       63.45772       73.44750
N         83.54856       64.79408       73.82466
H         84.61892       57.54377       73.14466
H         84.43105       58.50746       75.18758
H         82.93066       60.23937       75.80208
H         81.90189       60.04033       74.35039
H         83.72405       60.78104       72.87698
H         84.87148       60.89945       74.27156
H         83.47190       62.59533       75.36856
H         82.20833       62.45873       74.08399
H         83.78124       63.27691       72.37283
H         85.10807       63.39109       73.59523
H         84.00130       65.50148       73.20303
H         82.50987       64.86478       73.72045
H         83.81468       64.99341       74.81673
N         82.78855       57.18526       76.62418
C         81.93977       56.23725       77.32981
C         81.95960       54.90493       76.60282
O         80.88762       54.45566       76.22606
C         82.33216       56.08091       78.81624
C         82.11068       57.38972       79.59175
C         82.47668       57.22887       81.03785
O         83.62313       56.95420       81.35497
O         81.54434       57.40166       81.99405
H         83.63552       57.54518       77.08960
H         80.89274       56.62093       77.33515
H         83.38214       55.75173       78.93180
H         81.68166       55.30136       79.27259
H         81.03868       57.67832       79.51675
H         82.72340       58.20980       79.16247
N         83.09132       54.19478       76.31872
C         84.46055       54.55065       76.63528
H         85.04535       54.61476       75.69397
H         84.57068       55.51189       77.15384
H         84.90435       53.75969       77.27550
H         82.97328       53.31866       75.80204
Ca        79.62054       52.30874       74.09369
O         80.00338       55.18817       73.54056
H         79.37827       55.82253       73.97011
H         80.09206       55.52032       72.61502
O         77.93926       55.03015       76.34614
H         78.29982       54.98332       77.26713
H         78.11170       55.96259       76.06144
O         79.00122       51.55643       77.15347
H         78.20581       51.71486       77.71983
H         79.42928       50.75530       77.54694

Ca 1.0



