%chk=apoCaM-CA-Ng.loop2.water4.frame685.chk
%nprocshared=20
%mem=10GB
%nosave
#b3lyp/svp scf=(tight,noincore,xqc) Test 
#IOP(5/87=12) Density=Current Pop=(MK,readradii) iop(6/33=2) iop(6/42=6)

apoCaM-CA-Ng.loop2.water4.frame685 

   -2  1 
C         82.93242       61.59299       66.58504
C         82.04676       62.49220       65.77044
O         82.48321       62.96936       64.73323
H         83.84998       62.14265       66.88071
H         82.41985       61.24390       67.50680
H         83.21637       60.70325       65.98469
N         80.77339       62.75151       66.17630
C         79.84010       63.59630       65.44595
C         78.72630       62.71190       64.93184
O         77.59754       62.80063       65.39357
C         79.35085       64.73058       66.37017
C         78.39384       65.65635       65.66689
O         77.14265       65.81782       66.13849
O         78.74499       66.26519       64.66854
H         80.42964       62.30525       67.04144
H         80.32202       64.07354       64.56332
H         80.22617       65.32596       66.70850
H         78.85723       64.29788       67.26781
N         79.00142       61.82828       63.93441
C         78.02789       60.89343       63.38708
C         78.60974       59.48992       63.39684
O         79.81021       59.36121       63.60051
C         77.72214       61.31974       61.94764
H         79.94954       61.83820       63.52490
H         77.09957       60.92414       63.98812
H         76.97382       60.67314       61.45975
H         77.32356       62.35535       61.94407
H         78.64984       61.29315       61.33555
N         77.88272       58.36304       63.15568
C         76.42560       58.26687       63.02859
C         75.70000       58.68627       64.29966
O         75.89525       58.08084       65.34279
C         75.99694       56.81864       62.67310
C         76.53963       55.76095       63.59797
O         77.38731       56.09131       64.58832
O         76.29809       54.58431       63.38246
H         78.43686       57.49712       63.07814
H         76.07688       58.89260       62.18965
H         76.37973       56.57783       61.65866
H         74.88664       56.75566       62.64692
N         74.77820       59.68604       64.26381
C         73.91547       59.98516       65.39110
C         74.68731       60.40966       66.61429
O         75.44009       61.36461       66.49740
H         74.62397       60.20386       63.38537
H         73.34396       59.07220       65.58847
H         73.21840       60.80284       65.10548
N         74.60923       59.78127       67.82946
C         73.70495       58.68591       68.22084
C         74.11992       58.14427       69.59110
O         74.36557       58.94200       70.48796
C         72.23851       59.17679       68.42519
C         71.44886       59.58739       67.21007
N         71.08332       58.67624       66.27575
O         71.09146       60.74964       67.09101
H         75.25999       60.13669       68.54838
H         73.74873       57.84876       67.49084
H         72.26141       60.02493       69.14417
H         71.64600       58.35875       68.89488
H         71.35430       57.68621       66.36777
H         70.52823       58.96323       65.45533
N         74.05772       56.80624       69.86813
C         74.21426       56.28316       71.22328
C         75.10424       55.06118       71.36230
O         75.19125       54.56552       72.47571
H         73.74252       56.16109       69.12730
H         73.20512       55.96789       71.56850
H         74.57228       57.06488       71.92630
N         75.73433       54.47322       70.30329
C         76.44612       53.19305       70.40709
C         77.89994       53.29334       69.93747
O         78.32290       54.34788       69.48880
C         75.63491       52.11834       69.63876
C         74.33968       51.77999       70.39203
O         75.31508       52.59213       68.35796
H         75.64226       54.89529       69.37218
H         76.51687       52.86515       71.46722
H         76.23316       51.18402       69.56139
H         74.86039       51.85564       67.87213
H         74.58011       51.38013       71.40000
H         73.69199       52.67517       70.49979
H         73.77325       51.00047       69.83959
N         78.74082       52.21826       70.10404
C         80.18382       52.23856       69.83772
C         80.57018       51.13278       68.85580
O         80.32711       49.96971       69.14238
C         80.97338       52.02584       71.16963
C         82.50860       52.00910       70.90757
C         80.60401       53.11459       72.19588
C         83.34551       51.62879       72.12930
H         78.35341       51.35581       70.51369
H         80.48383       53.22346       69.42327
H         80.67895       51.03851       71.59180
H         82.83651       52.99691       70.52480
H         82.75282       51.24916       70.13618
H         79.51365       53.10926       72.40185
H         81.10461       52.93630       73.16827
H         80.89263       54.11929       71.81953
H         84.41720       51.59142       71.83871
H         83.24423       52.36865       72.94673
H         83.04720       50.62345       72.49666
N         81.23400       51.43617       67.70129
C         81.71935       50.44087       66.73806
C         83.20675       50.56118       66.41123
O         83.67566       49.70321       65.67329
C         80.88112       50.51940       65.45273
C         80.67824       51.93424       65.02442
O         81.59567       52.65224       64.66040
O         79.45264       52.42411       65.22547
H         81.37832       52.42811       67.47908
H         81.58756       49.41460       67.14452
H         79.87540       50.11974       65.71313
H         81.27879       49.88964       64.62913
N         84.02445       51.54706       66.89157
C         85.46285       51.53973       66.62836
C         86.05973       52.94385       66.74070
O         86.84813       53.18149       67.64574
C         86.12726       50.48403       67.55058
C         87.60016       50.26655       67.27655
C         88.54128       50.39417       68.31385
C         88.04678       49.90156       65.99195
C         89.89914       50.16187       68.06913
C         89.40576       49.68233       65.75025
C         90.33109       49.80956       66.78805
H         83.64532       52.27924       67.50382
H         85.64615       51.20861       65.58873
H         85.62767       49.50587       67.38677
H         85.95869       50.76586       68.61386
H         88.22538       50.65942       69.31500
H         87.34924       49.78470       65.17352
H         90.61726       50.25124       68.87395
H         89.74037       49.40776       64.75802
H         91.38194       49.63080       66.59982
N         85.77939       53.92567       65.81754
C         86.40881       55.24406       65.80343
C         86.18308       56.11183       67.02646
O         86.81312       57.15736       67.11072
C         85.78702       55.93481       64.58498
C         85.56580       54.76876       63.65387
C         85.00489       53.71685       64.60885
H         87.50069       55.07318       65.66492
H         84.77290       56.31536       64.85341
H         86.38422       56.77671       64.17388
H         84.92650       54.97816       62.77062
H         86.56852       54.43298       63.29943
H         83.93388       53.89441       64.83944
H         85.15425       52.72774       64.13106
N         85.29131       55.77323       68.00011
C         85.13573       56.55707       69.21577
C         86.43078       56.44292       69.98975
O         87.05640       57.45587       70.27093
C         83.94411       56.10523       70.10675
C         82.53820       56.44740       69.55193
C         81.97214       55.53177       68.50261
O         80.88317       55.78234       68.01266
O         82.58850       54.39495       68.15906
H         84.74947       54.91794       67.88709
H         84.94691       57.62419       68.95644
H         84.03139       56.71646       71.03311
H         84.01589       55.04118       70.41311
H         82.54823       57.49117       69.17106
H         81.81489       56.40327       70.39501
N         86.91992       55.21441       70.31427
C         88.19198       55.03761       70.97530
H         89.00062       55.48872       70.36044
H         88.17089       55.51495       71.97633
H         88.40571       53.95372       71.09301
H         86.38826       54.37103       70.04975
Ca        78.72720       54.50311       65.29132
O         78.50297       57.86725       67.17477
H         78.49663       58.79037       67.53189
H         78.46876       57.98528       66.19294
O         80.83584       56.58552       64.47664
H         81.77136       56.31774       64.65751
H         80.60836       57.20280       65.21623
O         75.84402       55.34442       66.89405
H         74.88313       55.32258       66.65777
H         75.99191       56.25202       67.26036
O         77.18308       52.51764       66.57092
H         77.23505       51.54539       66.39620
H         76.50759       52.85299       65.92905

Ca 1.0



