%chk=apoCaM-CA-Ng.loop1.water2.frame1267.chk
%nprocshared=20
%mem=10GB
%nosave
#b3lyp/svp scf=(tight,noincore,xqc) Test 
#IOP(5/87=12) Density=Current Pop=(MK,readradii) iop(6/33=2) iop(6/42=6)

apoCaM-CA-Ng.loop1.water2.frame1267 

   0  1 
C         59.60765       35.33156       26.19058
C         60.27570       36.61585       25.80206
O         59.70130       37.66778       26.04590
H         58.63943       35.23776       25.65514
H         60.24004       34.45414       25.94246
H         59.41830       35.33465       27.28466
N         61.48998       36.60985       25.17909
C         62.18781       37.82878       24.79356
C         62.24107       37.92197       23.28299
O         63.31057       38.02547       22.69682
C         63.58538       37.87074       25.43852
C         63.50172       37.81253       26.93732
O         64.03370       36.89787       27.54576
O         62.84289       38.77035       27.61724
H         61.93517       35.70672       24.95481
H         61.63035       38.72612       25.13945
H         64.09873       38.81495       25.15294
H         64.18975       37.01475       25.06417
N         61.07162       37.92676       22.58966
C         60.98613       38.12619       21.15001
C         61.56103       39.47369       20.74259
O         62.37772       39.47164       19.83179
C         59.54336       37.93392       20.63452
C         59.12641       36.46167       20.81332
C         57.74039       36.15346       20.24469
C         57.43635       34.65565       20.41399
N         56.12269       34.31287       19.87498
H         60.19597       37.81172       23.12281
H         61.59319       37.34456       20.63729
H         59.52104       38.16338       19.54563
H         58.83538       38.61851       21.14914
H         59.13946       36.18983       21.89002
H         59.86543       35.82180       20.28063
H         57.71564       36.41269       19.16341
H         56.97522       36.75760       20.77866
H         57.47002       34.38913       21.49421
H         58.21252       34.05761       19.88444
H         55.37805       34.84765       20.37754
H         56.08778       34.52639       18.85186
H         55.95734       33.28928       20.01258
N         61.29694       40.66427       21.35869
C         60.45770       40.89521       22.53434
C         61.36634       41.17319       23.73449
O         62.57073       41.00478       23.59705
C         59.47185       42.03864       22.23861
C         60.16714       43.33309       21.95248
O         60.99062       43.87466       22.86754
O         59.98063       43.90830       20.89297
H         61.82364       41.48201       21.01057
H         59.83467       40.02042       22.78498
H         58.79581       42.19280       23.10469
H         58.83366       41.75433       21.37225
N         60.88167       41.60656       24.93806
C         61.75065       41.81113       26.09376
C         61.95800       43.27182       26.41978
O         61.39779       44.13240       25.76215
H         59.87748       41.81056       25.04616
H         62.76019       41.38979       25.90856
H         61.32732       41.27411       26.96932
N         62.83563       43.61374       27.40638
C         63.15730       44.99223       27.78562
C         62.99693       45.15991       29.29732
O         62.82161       44.15376       29.97087
C         64.62022       45.26792       27.37691
C         64.82853       45.08106       25.90106
O         65.68983       44.14546       25.45759
O         64.22452       45.77598       25.09977
H         63.34207       42.85137       27.88364
H         62.48247       45.70103       27.26214
H         65.28771       44.56665       27.92530
H         64.93173       46.29525       27.62946
N         63.05094       46.35722       29.95642
C         63.10854       47.68811       29.37448
C         61.83717       48.00181       28.63379
O         60.76544       47.75169       29.16871
H         62.98998       46.32770       30.98680
H         64.01569       47.85623       28.76479
H         63.16169       48.41715       30.21241
N         61.87076       48.61364       27.42024
C         60.65241       48.94132       26.69293
C         60.02211       47.67476       26.15135
O         60.72123       46.89463       25.52467
C         60.91645       49.90568       25.51241
C         61.46504       51.25845       25.98252
O         59.69873       50.13319       24.84788
H         62.78468       48.88242       27.02351
H         59.94471       49.48041       27.36305
H         61.64614       49.43110       24.81923
H         59.91894       50.34954       23.90833
H         61.61417       51.92534       25.10617
H         60.74431       51.74746       26.67330
H         62.43890       51.14304       26.49918
N         58.67274       47.49249       26.25166
C         57.89580       46.45472       25.57393
C         58.20426       46.47971       24.08811
O         59.21773       45.92887       23.69737
C         58.06992       45.02259       26.17064
C         57.80418       45.02573       27.69561
C         57.14123       44.02930       25.43389
C         57.94233       43.64780       28.35282
H         58.12988       48.21434       26.74889
H         56.82641       46.72956       25.71538
H         59.10881       44.68790       26.01221
H         56.78548       45.41639       27.90486
H         58.54545       45.69904       28.17833
H         57.35209       44.01564       24.34442
H         57.30051       42.98877       25.78059
H         56.07629       44.30606       25.58426
H         58.94437       43.21297       28.15072
H         57.80924       43.74706       29.45030
H         57.15761       42.95083       27.99274
N         57.36853       47.06987       23.19404
C         57.62772       47.06326       21.75552
C         57.72673       48.46477       21.14058
O         57.95898       48.54705       19.94409
C         56.57056       46.18193       21.04571
C         55.13113       46.63514       21.30137
O         56.69598       44.85376       21.48869
H         56.50926       47.51515       23.54776
H         58.60566       46.58799       21.54652
H         56.74187       46.22123       19.94357
H         57.38625       44.42082       20.92137
H         54.98541       47.68581       20.97813
H         54.43298       45.98193       20.73752
H         54.87150       46.54138       22.37707
N         57.55854       49.60810       21.86860
C         57.59981       50.94182       21.25988
C         59.02038       51.32034       20.84445
O         59.87888       51.39441       21.70994
C         57.02960       51.98146       22.25657
C         56.95175       53.38269       21.64429
O         55.73606       51.58205       22.63228
H         57.33525       49.53295       22.87017
H         56.92421       50.94160       20.37538
H         57.69101       52.00846       23.15598
H         55.54792       52.00138       23.51232
H         57.96290       53.74978       21.38676
H         56.31687       53.37088       20.73215
H         56.51108       54.08978       22.37757
N         59.33903       51.58923       19.53857
C         60.68198       51.97621       19.09140
C         61.67570       50.91187       19.51574
O         62.56935       51.18814       20.30646
C         61.08865       53.37712       19.62457
C         60.16083       54.52872       19.20366
C         60.14931       54.80300       17.69303
C         59.24389       56.00302       17.37652
N         59.21003       56.27571       15.94052
H         58.60550       51.49613       18.82047
H         60.70070       52.02711       17.98170
H         62.11703       53.61721       19.27135
H         61.11606       53.35547       20.73409
H         60.52159       55.44761       19.71702
H         59.12971       54.32115       19.54845
H         59.76841       53.91545       17.14686
H         61.18360       55.02407       17.34811
H         59.61865       56.90482       17.91112
H         58.21073       55.79051       17.73154
H         58.83568       55.44555       15.42626
H         58.58259       57.09346       15.76363
H         60.17003       56.50428       15.59429
N         61.54916       49.64612       19.03706
C         62.35419       48.53474       19.51960
C         61.44296       47.42192       20.05850
O         61.00754       47.81377       21.32131
C         63.39474       48.05974       18.49023
C         64.20561       46.84238       18.99234
C         64.86158       47.06914       20.32915
O         64.55136       46.27455       21.37221
O         65.66885       47.97188       20.47862
H         60.82172       49.46036       18.33052
H         62.97461       48.85934       20.38326
H         64.08801       48.90743       18.29929
H         62.93982       47.79813       17.52020
H         64.98769       46.59730       18.24474
H         63.53144       45.96330       19.07851
N         60.27866       47.04810       19.23391
C         60.60134       46.54930       17.89955
H         60.84680       47.39071       17.22521
H         61.41496       45.79457       17.93409
H         59.70020       46.06885       17.46091
H         59.81917       46.25035       19.72697
Ca        61.56610       45.98953       22.49495
O         63.50275       48.23948       23.40555
H         63.22064       49.03551       22.88899
H         63.97668       48.60787       24.19282
O         63.98093       43.45435       22.72770
H         63.53575       43.50488       23.61056
H         64.89680       43.78981       22.89399

Ca 1.0



