%chk=apoCaM-CA-Ng.loop3.water5.frame421.chk
%nprocshared=20
%mem=10GB
%nosave
#b3lyp/svp scf=(tight,noincore,xqc) Test 
#IOP(5/87=12) Density=Current Pop=(MK,readradii) iop(6/33=2) iop(6/42=6)

apoCaM-CA-Ng.loop3.water5.frame421 

   0  1 
C         75.00838      -37.05370       70.95383
C         73.69969      -37.27648       71.65479
O         73.48769      -38.36974       72.15983
H         75.85111      -37.20306       71.65809
H         75.09801      -37.78656       70.12176
H         75.07153      -36.03402       70.51949
N         72.74192      -36.30515       71.66281
C         71.38638      -36.54311       72.14102
C         70.85111      -35.38522       72.96750
O         70.99231      -34.24582       72.54232
C         70.49321      -36.71705       70.90156
C         69.11299      -37.15931       71.28162
O         68.14277      -36.47649       70.99734
O         68.94697      -38.32870       71.92821
H         72.93572      -35.41830       71.17151
H         71.32762      -37.49092       72.72106
H         70.92248      -37.50694       70.24875
H         70.45936      -35.76807       70.32043
N         70.07128      -35.62331       74.06656
C         69.30595      -34.57181       74.73012
C         69.57127      -34.53192       76.22511
O         69.33148      -35.51621       76.91038
C         67.79295      -34.73678       74.40433
C         67.09468      -35.97038       75.02336
C         65.61115      -36.09581       74.61500
C         65.36458      -36.50393       73.14930
N         65.79761      -37.87770       72.88309
H         69.91858      -36.59788       74.36496
H         69.57610      -33.58140       74.30182
H         67.70021      -34.76334       73.29853
H         67.25271      -33.83181       74.76259
H         67.09634      -35.84349       76.12436
H         67.63949      -36.90472       74.78921
H         65.10919      -35.12419       74.81426
H         65.12411      -36.85990       75.25934
H         65.86055      -35.79902       72.45038
H         64.27088      -36.44731       72.95439
H         65.60393      -38.11422       71.88322
H         66.81685      -37.98694       73.05784
H         65.27265      -38.54536       73.49358
N         70.02852      -33.39011       76.81124
C         70.10137      -33.21997       78.26028
C         68.68188      -33.31573       78.81546
O         67.78751      -32.72979       78.22592
C         70.77112      -31.86292       78.58657
C         70.98105      -31.65153       80.06304
O         70.03233      -31.53448       80.80895
O         72.20886      -31.54765       80.59232
H         70.26541      -32.58640       76.20806
H         70.75303      -34.00682       78.70154
H         70.17574      -31.01915       78.17245
H         71.77093      -31.85026       78.09950
N         68.38889      -34.07640       79.90924
C         67.02875      -34.28854       80.40701
C         66.29274      -33.05278       80.92611
O         65.15140      -33.20056       81.33759
H         69.15769      -34.57279       80.38403
H         67.07414      -35.01626       81.24698
H         66.42628      -34.74678       79.59436
N         66.87222      -31.82258       80.96434
C         66.25542      -30.60375       81.47677
C         66.27952      -29.49266       80.42565
O         65.93041      -28.36800       80.75757
C         67.07938      -30.12160       82.69444
C         67.17600      -31.15738       83.78477
N         66.07251      -31.58453       84.43936
O         68.27033      -31.60879       84.08760
H         67.82737      -31.72948       80.63814
H         65.20578      -30.78056       81.79767
H         66.62989      -29.20014       83.12345
H         68.10752      -29.86977       82.35166
H         65.14213      -31.20860       84.20786
H         66.15207      -32.28813       85.18857
N         66.72264      -29.70979       79.15113
C         66.95647      -28.64125       78.19732
C         68.17376      -27.80295       78.56033
O         68.43522      -26.83611       77.86023
H         66.93303      -30.65747       78.83375
H         66.04489      -28.01273       78.11487
H         67.16173      -29.08248       77.19645
N         68.99609      -28.13816       79.60026
C         70.19822      -27.39781       79.95597
C         70.37778      -27.44941       81.46144
O         70.51709      -28.53455       82.01010
C         71.40647      -28.01768       79.22486
C         72.73754      -27.40278       79.59783
C         72.99967      -26.04097       79.37186
C         73.74215      -28.20616       80.16648
C         74.24448      -25.49638       79.70965
C         74.98339      -27.66130       80.50131
C         75.23996      -26.30337       80.27234
O         76.43494      -25.76518       80.58988
H         68.82165      -29.00842       80.12003
H         70.10521      -26.33823       79.63201
H         71.25794      -27.91200       78.12810
H         71.43057      -29.10054       79.44899
H         72.24537      -25.40157       78.93215
H         73.56984      -29.25829       80.34924
H         74.43734      -24.44602       79.53191
H         75.74440      -28.29690       80.93686
H         77.14804      -26.29073       80.98068
N         70.39688      -26.30205       82.19315
C         70.59438      -26.29762       83.63705
C         69.27537      -26.54206       84.35974
O         69.30615      -27.05802       85.46837
C         71.26636      -24.96571       84.09996
C         72.55944      -24.62684       83.30678
C         71.56665      -24.96350       85.61145
C         73.66472      -25.67950       83.38867
H         70.29064      -25.40066       81.70444
H         71.29320      -27.12225       83.90371
H         70.55511      -24.13252       83.90443
H         72.96314      -23.66196       83.68309
H         72.31727      -24.47544       82.23414
H         70.63700      -25.05108       86.19562
H         72.23555      -25.80138       85.89717
H         72.03857      -24.00386       85.91022
H         73.32561      -26.62315       82.92233
H         74.55018      -25.32187       82.82567
H         73.98001      -25.86530       84.43464
N         68.07716      -26.15378       83.82514
C         66.81525      -26.29712       84.55241
C         66.74772      -25.40523       85.79339
O         65.81351      -25.55842       86.56683
C         65.62052      -25.98034       83.63860
O         65.67918      -24.64700       83.20912
H         68.06037      -25.74470       82.87888
H         66.72526      -27.36065       84.86873
H         64.67255      -26.15428       84.19638
H         65.65205      -26.66018       82.76008
H         64.89426      -24.51354       82.61716
N         67.69607      -24.45365       86.04523
C         67.72983      -23.59210       87.22014
C         67.81081      -24.41198       88.49975
O         67.09809      -24.12962       89.45405
C         66.55561      -22.60164       87.20952
H         68.46541      -24.31777       85.37762
H         68.66615      -22.99275       87.15486
H         66.55949      -22.02169       86.26188
H         65.58358      -23.13026       87.29544
H         66.64613      -21.88778       88.05537
N         68.65471      -25.47863       88.56411
C         68.80926      -26.33819       89.72789
C         70.27280      -26.46849       90.08537
O         71.10528      -26.53802       89.19022
C         68.24228      -27.72246       89.42570
H         69.18663      -25.73104       87.72123
H         68.23973      -25.94729       90.60042
H         68.77093      -28.19425       88.57108
H         68.34786      -28.37176       90.32276
H         67.16124      -27.63758       89.18474
N         70.65386      -26.54113       91.39083
C         72.03670      -26.66171       91.83843
C         72.83155      -25.45588       91.36657
O         73.88960      -25.61356       90.77180
C         72.67550      -28.00132       91.38363
C         71.91471      -29.22864       91.90383
C         72.55523      -30.49822       91.41589
O         73.05091      -31.38830       92.29644
O         72.62076      -30.73402       90.21935
H         69.92458      -26.49785       92.11943
H         72.03597      -26.64465       92.95124
H         73.72032      -28.05248       91.76338
H         72.71686      -28.04284       90.27460
H         70.86154      -29.20997       91.55090
H         71.91790      -29.21556       93.01529
N         72.34172      -24.20254       91.57998
C         73.01445      -22.99715       91.14171
H         74.00175      -23.20644       90.67912
H         72.38087      -22.47613       90.39329
H         73.16972      -22.32784       92.01250
H         71.42993      -24.09205       92.04900
Ca        72.13130      -31.18034       82.82281
O         74.19698      -33.20734       82.98941
H         74.45075      -32.43545       82.42275
H         74.26382      -32.86568       83.91663
O         73.70800      -29.04280       84.07425
H         73.34169      -28.90267       83.16532
H         74.48447      -29.64026       83.93360
O         70.37605      -29.78703       85.34314
H         70.95899      -29.23315       85.92075
H         69.52148      -29.84853       85.83990
O         70.39458      -33.80760       82.76752
H         69.94920      -34.22583       83.54622
H         70.90783      -34.54308       82.34815
O         71.49006      -32.58484       85.57641
H         72.04364      -32.38036       86.37133
H         70.99692      -33.40771       85.82069

Ca 1.0



