%chk=apoCaM-CA-Ng.loop1.water3.frame263.chk
%nprocshared=20
%mem=10GB
%nosave
#b3lyp/svp scf=(tight,noincore,xqc) Test 
#IOP(5/87=12) Density=Current Pop=(MK,readradii) iop(6/33=2) iop(6/42=6)

apoCaM-CA-Ng.loop1.water3.frame263 

   0  1 
C          5.55453       16.55752        7.64687
C          4.60081       17.57133        8.20702
O          4.84098       18.10445        9.28094
H          6.41982       16.40547        8.32508
H          5.03017       15.58978        7.50249
H          5.93152       16.91186        6.66296
N          3.49167       17.90524        7.49663
C          2.54348       18.92993        7.91866
C          1.64411       18.48036        9.07141
O          0.76676       19.25309        9.41034
C          1.62334       19.33223        6.73222
C          2.36664       19.91175        5.55496
O          3.23848       19.16455        4.85211
O          2.15119       21.06177        5.20589
H          3.35661       17.44579        6.58331
H          3.09834       19.84862        8.21527
H          0.91845       20.11673        7.08329
H          1.02405       18.45862        6.39451
N          1.73366       17.26616        9.69414
C          0.68151       16.77560       10.59056
C          1.13680       16.56118       12.02231
O          2.25719       16.10359       12.19736
C          0.14382       15.44356       10.03206
C         -0.50790       15.64608        8.65359
C         -1.29622       14.42377        8.16034
C         -2.53585       14.14006        9.03298
N         -3.36269       13.08528        8.45348
H          2.50090       16.62007        9.46334
H         -0.15371       17.48738       10.61731
H         -0.59599       15.05293       10.74589
H          0.94975       14.67939        9.96580
H          0.28969       15.89020        7.91815
H         -1.21107       16.50650        8.68903
H         -0.63883       13.52858        8.11144
H         -1.64658       14.65764        7.13187
H         -3.14732       15.06670        9.11501
H         -2.23409       13.82884       10.05417
H         -2.81538       12.19775        8.38016
H         -4.19046       12.92678        9.07307
H         -3.70183       13.37697        7.50819
N          0.32031       16.73231       13.12254
C         -1.06954       17.22445       13.18827
C         -2.04734       16.42351       12.33409
O         -2.31965       16.81061       11.20712
C         -1.18831       18.74330       12.99977
C         -0.53462       19.50088       14.12792
O          0.09966       18.83817       15.11898
O         -0.62434       20.71468       14.17095
H          0.72548       16.46086       14.03232
H         -1.42082       17.10623       14.23270
H         -2.26589       19.02074       13.01057
H         -0.75555       19.03867       12.03750
N         -2.65966       15.29771       12.79838
C         -2.55973       14.87613       14.18537
C         -3.27455       13.57597       14.48075
O         -3.64806       12.86798       13.55749
H         -3.27250       14.78004       12.15047
H         -3.05257       15.67885       14.77601
H         -1.49886       14.76470       14.49721
N         -3.55861       13.19105       15.75922
C         -3.28420       14.00015       16.94516
C         -4.56342       14.68997       17.38905
O         -5.60585       14.48352       16.77872
C         -2.62733       13.14423       18.04984
C         -3.48683       11.99338       18.50003
O         -4.69203       12.21899       19.05719
O         -3.08749       10.84682       18.37463
H         -4.10790       12.32607       15.88403
H         -2.56550       14.81345       16.71961
H         -2.39525       13.77571       18.93361
H         -1.66130       12.75333       17.66061
N         -4.55121       15.56360       18.43247
C         -5.73461       16.28168       18.87139
C         -6.20187       17.36223       17.90988
O         -7.19453       17.99828       18.23460
H         -3.67688       15.71135       18.95802
H         -5.50595       16.79179       19.83137
H         -6.55461       15.55406       19.06198
N         -5.55729       17.65205       16.73625
C         -5.98859       18.71913       15.83696
C         -6.46211       18.11076       14.53600
O         -5.68257       17.46844       13.84456
C         -4.84938       19.73075       15.59191
C         -4.40317       20.38645       16.90149
O         -5.30106       20.72707       14.70983
H         -4.72855       17.11064       16.45476
H         -6.83640       19.28302       16.28407
H         -3.98516       19.18880       15.13867
H         -4.49464       21.15953       14.32428
H         -3.59537       21.11734       16.69353
H         -5.25318       20.92279       17.37512
H         -4.01478       19.62492       17.60996
N         -7.76603       18.25202       14.16593
C         -8.32721       17.61905       12.97661
C         -7.82915       18.25215       11.67927
O         -8.11477       17.69426       10.62803
C         -9.88719       17.56579       13.04934
C        -10.53541       18.97627       12.96800
C        -10.31768       16.79160       14.31635
C        -12.06374       18.95422       13.05798
H         -8.39004       18.76460       14.80338
H         -7.98364       16.55956       12.97779
H        -10.24730       16.97623       12.17649
H        -10.26106       19.43439       11.99324
H        -10.16128       19.63946       13.77426
H        -11.41033       16.60921       14.32569
H         -9.82664       15.79565       14.34162
H        -10.05134       17.33684       15.24547
H        -12.49440       18.29486       12.27568
H        -12.39646       18.60812       14.05883
H        -12.45867       19.98246       12.91953
N         -7.09165       19.40485       11.66496
C         -6.55137       20.00127       10.44411
C         -5.03673       20.09823       10.51947
O         -4.47439       20.03793       11.60551
C         -7.19023       21.38410       10.16006
C         -7.02773       22.38289       11.31362
O         -8.56254       21.22356        9.90620
H         -6.89038       19.88327       12.55327
H         -6.77929       19.34862        9.57269
H         -6.69187       21.83522        9.26754
H         -8.66865       21.12159        8.92380
H         -7.55518       22.02739       12.22397
H         -5.95647       22.54568       11.55286
H         -7.47733       23.35781       11.02891
N         -4.30366       20.18551        9.37263
C         -2.84407       20.21635        9.37702
C         -2.31747       21.51734        9.96301
O         -2.98030       22.53871        9.84415
C         -2.25384       19.96778        7.96346
C         -2.56291       21.07296        6.94408
O         -2.72280       18.73388        7.48118
H         -4.80539       20.15539        8.47227
H         -2.49128       19.36590       10.00390
H         -1.15323       19.91928        8.07642
H         -2.07918       18.42660        6.78947
H         -2.15056       22.04551        7.28389
H         -2.08070       20.82430        5.97413
H         -3.65335       21.17570        6.77473
N         -1.10992       21.54473       10.59732
C         -0.48191       22.75839       11.10706
C          0.70285       22.42741       12.00968
O          0.73398       22.91635       13.12930
C         -0.09511       23.69935        9.93868
C          1.00845       23.16951        8.99909
C          1.02134       23.89379        7.64557
C          1.19907       25.41675        7.73046
N          1.03576       26.01675        6.40627
H         -0.61663       20.65941       10.71412
H         -1.22652       23.30136       11.73239
H          0.22840       24.67992       10.34930
H         -1.01041       23.88097        9.34095
H          0.81142       22.10412        8.75623
H          1.99901       23.24806        9.50025
H          0.05121       23.67753        7.14899
H          1.83164       23.46471        7.01515
H          2.20367       25.66057        8.14145
H          0.42951       25.85688        8.39900
H          1.14504       27.05350        6.47943
H          1.74852       25.63772        5.74214
H          0.07535       25.81026        6.04338
N          1.70323       21.59630       11.59489
C          2.87807       21.25987       12.38454
C          4.08302       21.80160       11.65441
O          4.33997       21.39101       10.52989
C          2.96596       19.72570       12.57877
C          4.25814       19.24613       13.26751
C          4.44168       19.82876       14.63796
O          5.42000       20.51479       14.88787
O          3.54128       19.57826       15.60415
H          1.65157       21.18613       10.65552
H          2.82358       21.72920       13.38948
H          2.92065       19.22641       11.58740
H          2.08762       19.38438       13.16579
H          5.13081       19.50759       12.63060
H          4.23053       18.13861       13.35726
N          4.85878       22.75683       12.23208
C          5.99423       23.33318       11.55067
H          6.73803       22.54257       11.31806
H          5.65849       23.81890       10.60933
H          6.47093       24.10039       12.19621
H          4.62995       23.09979       13.17762
Ca         1.01733       19.76746       16.95598
O          1.62799       22.60927       16.11341
H          1.04033       22.02313       15.57676
H          2.50778       22.54805       15.66472
O          3.24448       21.21995       18.55778
H          2.75383       22.01773       18.87908
H          3.66719       21.51268       17.71170
O         -1.19302       20.85631       18.53013
H         -1.42616       21.33234       17.69390
H         -1.46830       19.91894       18.36710

Ca 1.0



