%chk=apoCaM-CA-Ng.loop3.water3.frame950.chk
%nprocshared=20
%mem=10GB
%nosave
#b3lyp/svp scf=(tight,noincore,xqc) Test 
#IOP(5/87=12) Density=Current Pop=(MK,readradii) iop(6/33=2) iop(6/42=6)

apoCaM-CA-Ng.loop3.water3.frame950 

   0  1 
C         74.74100      117.23949       53.41150
C         74.39395      118.61201       53.90327
O         74.29419      119.53574       53.10819
H         75.67707      116.89533       53.89904
H         73.91895      116.53880       53.67309
H         74.87957      117.23379       52.31049
N         74.17005      118.80613       55.22945
C         73.76545      120.09070       55.79594
C         74.88684      121.11632       55.65209
O         76.02229      120.70890       55.44379
C         73.40124      119.84646       57.27192
C         72.58085      120.86781       57.98441
O         72.30170      120.64422       59.15160
O         72.08131      121.97592       57.40788
H         74.24502      117.98185       55.84762
H         72.86706      120.41272       55.24174
H         74.33533      119.65481       57.84367
H         72.77585      118.93052       57.32870
N         74.64363      122.46070       55.70994
C         75.70151      123.46446       55.56229
C         75.81676      124.39690       56.76259
O         76.83628      125.06594       56.86277
C         75.54005      124.22768       54.23019
C         74.25428      125.06769       54.13648
C         74.06293      125.61214       52.71194
C         72.74424      126.38376       52.53246
N         72.72561      127.64002       53.28251
H         73.67260      122.77500       55.81216
H         76.68274      122.94525       55.50055
H         75.53526      123.46505       53.42014
H         76.41705      124.89226       54.06482
H         74.30339      125.89106       54.87967
H         73.37716      124.43450       54.36211
H         74.02846      124.74243       52.01867
H         74.92051      126.25533       52.41785
H         71.88549      125.74429       52.83726
H         72.62473      126.61693       51.45113
H         71.82810      128.13812       53.08321
H         72.78235      127.46431       54.31006
H         73.52026      128.24818       52.97772
N         74.83295      124.50785       57.70560
C         74.96260      125.31980       58.91288
C         74.72578      124.49744       60.18549
O         74.85609      125.06139       61.26045
C         74.06549      126.57133       58.80883
C         72.60908      126.28186       58.59590
O         72.05043      126.67134       57.58353
O         71.90050      125.63602       59.53307
H         73.94021      124.01748       57.56877
H         75.99937      125.71432       59.00150
H         74.43091      127.17305       57.94669
H         74.18109      127.19522       59.72156
N         74.46085      123.15475       60.15188
C         74.38626      122.30200       61.33309
C         73.10961      122.37732       62.15999
O         73.02203      121.60330       63.10254
H         74.43324      122.66712       59.24726
H         75.27519      122.48187       61.97627
H         74.44809      121.24714       60.98535
N         72.07996      123.23353       61.88980
C         70.82278      123.25128       62.64965
C         69.64188      122.99005       61.67538
O         69.99708      121.92970       60.85357
C         70.65831      124.60371       63.38154
C         71.73039      124.84141       64.42013
N         73.01782      125.05003       64.06596
O         71.42340      124.86718       65.60256
H         72.17762      123.89120       61.11117
H         70.81440      122.43891       63.41002
H         69.69138      124.61373       63.91928
H         70.64582      125.44375       62.65388
H         73.29088      125.07512       63.07887
H         73.74149      125.21393       64.78064
N         68.35714      122.68190       62.33862
C         67.24424      123.00726       61.43278
C         66.98716      121.92928       60.40846
O         67.53160      120.83814       60.51155
H         68.23239      123.28871       63.17521
H         67.45366      123.97163       60.91906
H         66.30308      123.14318       62.00997
N         66.15732      122.19353       59.35965
C         65.88196      121.23559       58.28901
C         67.16748      120.84472       57.55841
O         68.23199      121.32905       57.91203
C         64.88454      121.84321       57.26413
C         63.59057      122.33190       57.87244
C         63.20197      123.67302       57.70513
C         62.75145      121.46094       58.58757
C         61.99777      124.13419       58.24239
C         61.54897      121.92701       59.13056
C         61.16681      123.26210       58.95864
O         60.00120      123.69403       59.48103
H         65.72149      123.12793       59.31738
H         65.42880      120.32254       58.73253
H         64.61557      121.08581       56.49992
H         65.38686      122.68273       56.73550
H         63.82617      124.36304       57.15062
H         63.02501      120.42294       58.72523
H         61.71131      125.16856       58.09828
H         60.91092      121.24824       59.68218
H         59.69890      124.60794       59.37800
N         67.12238      119.98756       56.49719
C         68.25937      119.59423       55.66660
C         68.91620      120.82021       55.04642
O         69.57249      121.57444       55.74928
C         69.28480      118.70820       56.43257
C         70.46025      118.24056       55.52912
C         68.59236      117.50360       57.09243
C         70.06927      117.39308       54.31416
H         66.20791      119.60019       56.22247
H         67.83189      118.97193       54.85109
H         69.73260      119.30984       57.25416
H         71.17104      117.64899       56.14476
H         71.00271      119.12950       55.15393
H         67.82689      117.84645       57.81987
H         68.09028      116.86244       56.33929
H         69.33525      116.89463       57.65048
H         69.41753      117.96112       53.62002
H         70.98839      117.11441       53.75638
H         69.56026      116.45802       54.62266
N         68.74419      121.10083       53.72717
C         69.30408      122.29176       53.09818
C         68.59698      122.55828       51.79582
O         68.62270      121.70779       50.91556
C         70.81204      122.14591       52.81657
O         71.54705      121.99764       53.99378
H         68.12079      120.48925       53.17756
H         69.13963      123.16917       53.76202
H         71.18865      123.03685       52.26058
H         70.99823      121.26160       52.17013
H         71.59609      122.89519       54.41083
N         67.97203      123.75246       51.59192
C         67.33045      124.07253       50.32523
C         66.97345      125.55002       50.21036
O         66.94993      126.24136       51.21893
C         66.05091      123.23464       50.16454
H         68.02183      124.46150       52.33828
H         68.08389      123.85143       49.54211
H         66.26819      122.14794       50.18749
H         65.34568      123.46215       50.99389
H         65.53571      123.46593       49.21424
N         66.69047      126.14592       49.01299
C         66.76880      125.51069       47.69918
C         65.41406      125.56976       47.01675
O         64.80023      126.62713       47.05855
C         67.82271      126.22510       46.85705
H         66.44425      127.14893       49.03096
H         67.10855      124.47531       47.78553
H         67.90770      125.73456       45.86383
H         67.56379      127.29483       46.71496
H         68.81003      126.15523       47.36309
N         64.83420      124.51028       46.37674
C         65.46483      123.22812       46.06841
C         64.84117      122.12718       46.89700
O         65.57967      121.41043       47.55889
C         65.36065      122.93653       44.55833
C         66.07946      124.01660       43.72995
C         66.07451      123.67826       42.26773
O         66.67906      122.55571       41.83304
O         65.54635      124.42914       41.46335
H         63.87366      124.64689       46.02362
H         66.54982      123.22449       46.27886
H         64.29521      122.87389       44.24530
H         65.84307      121.95317       44.36019
H         67.13760      124.10334       44.05785
H         65.58166      124.99878       43.88795
N         63.49075      121.95516       46.94673
C         62.85111      120.95254       47.77607
H         62.21685      120.29890       47.14381
H         63.58319      120.31514       48.31637
H         62.21254      121.45699       48.53189
H         62.87831      122.58057       46.40369
Ca        70.78912      122.91559       58.96574
O         68.91754      125.69865       59.37598
H         69.33454      126.19877       60.12178
H         67.97911      126.01330       59.36340
O         67.63331      124.19349       56.52032
H         67.31379      124.96225       57.05582
H         67.46795      124.45979       55.58104
O         70.36727      125.01141       55.64731
H         70.03198      125.44836       54.82465
H         71.35228      125.06137       55.56989

Ca 1.0



