%chk=apoCaM-CA-Ng.loop3.water3.frame798.chk
%nprocshared=20
%mem=10GB
%nosave
#b3lyp/svp scf=(tight,noincore,xqc) Test 
#IOP(5/87=12) Density=Current Pop=(MK,readradii) iop(6/33=2) iop(6/42=6)

apoCaM-CA-Ng.loop3.water3.frame798 

   0  1 
C         -9.48062       79.07900       89.74331
C        -10.95562       79.33716       89.81168
O        -11.67000       78.58488       90.45894
H         -8.94156       79.94663       90.18279
H         -9.21082       78.16974       90.32079
H         -9.16418       78.95203       88.68804
N        -11.47606       80.43110       89.19297
C        -12.87335       80.83033       89.33998
C        -13.82028       79.82098       88.67800
O        -13.36228       79.03709       87.85771
C        -13.02677       82.26575       88.76962
C        -14.20325       83.06800       89.25139
O        -14.33715       84.21297       88.85775
O        -15.04968       82.60013       90.17989
H        -10.82341       81.04519       88.67924
H        -13.06104       80.86385       90.42193
H        -12.99827       82.21669       87.66130
H        -12.15261       82.87028       89.09119
N        -15.15488       79.79075       88.98017
C        -16.12981       78.92325       88.31543
C        -17.11354       79.73938       87.47432
O        -17.75469       79.15866       86.60976
C        -16.90297       78.07292       89.34388
C        -16.00413       77.10542       90.12782
C        -16.82929       76.32115       91.16094
C        -15.97100       75.28464       91.89869
N        -16.76266       74.56269       92.89595
H        -15.50677       80.41261       89.71218
H        -15.60516       78.24848       87.60358
H        -17.67465       77.47221       88.81323
H        -17.42231       78.75366       90.05351
H        -15.20353       77.66742       90.65637
H        -15.53271       76.39747       89.41163
H        -17.66204       75.79128       90.64803
H        -17.26216       77.03384       91.89769
H        -15.11995       75.79160       92.40482
H        -15.56134       74.55803       91.16183
H        -17.11642       75.22660       93.62277
H        -17.56963       74.07884       92.43873
H        -16.15933       73.84549       93.35975
N        -17.26146       81.08572       87.64474
C        -18.03466       81.96223       86.76890
C        -17.11416       83.00270       86.11206
O        -17.60419       83.82482       85.35074
C        -19.20453       82.60888       87.54578
C        -18.78096       83.23634       88.84284
O        -17.81836       84.17164       88.87534
O        -19.27828       82.85465       89.88977
H        -16.76944       81.55049       88.41639
H        -18.49265       81.38950       85.93215
H        -19.95081       81.81612       87.77910
H        -19.71046       83.36027       86.90244
N        -15.75939       82.96917       86.29489
C        -14.79898       83.79274       85.58036
C        -14.69210       85.25349       85.97815
O        -13.78741       85.88164       85.44600
H        -15.34447       82.23154       86.87668
H        -14.97768       83.70583       84.48670
H        -13.79254       83.36341       85.77354
N        -15.53504       85.88883       86.85120
C        -15.39962       87.32130       87.14929
C        -15.48452       87.64611       88.64110
O        -15.78589       86.78271       89.44845
C        -16.50052       88.08769       86.39256
C        -16.37973       87.87914       84.90231
N        -17.36570       87.26806       84.20594
O        -15.37538       88.26100       84.31939
H        -16.33924       85.37949       87.23851
H        -14.41267       87.69591       86.79795
H        -16.42921       89.17834       86.58964
H        -17.49174       87.73676       86.75401
H        -18.21685       86.93116       84.67837
H        -17.27325       87.12207       83.18976
N        -15.23506       88.92384       89.05654
C        -15.38824       89.43196       90.41693
C        -14.52683       88.73016       91.43787
O        -13.35150       88.51597       91.17235
H        -14.93612       89.61009       88.34652
H        -16.45542       89.39685       90.72115
H        -15.07887       90.50002       90.41022
N        -15.03180       88.40174       92.66981
C        -14.22616       87.71322       93.67742
C        -13.91428       86.29803       93.21277
O        -14.37148       85.90548       92.15072
C        -14.91055       87.67244       95.07269
C        -15.13076       89.01308       95.74974
C        -14.10047       89.97066       95.83722
C        -16.35937       89.28501       96.37967
C        -14.30203       91.17330       96.52288
C        -16.55050       90.48058       97.08263
C        -15.52596       91.42902       97.15468
O        -15.72464       92.57397       97.83982
H        -16.00067       88.66882       92.90252
H        -13.26198       88.25123       93.78872
H        -14.23730       87.12733       95.76397
H        -15.85878       87.09270       95.02237
H        -13.13594       89.79738       95.38234
H        -17.16178       88.55854       96.35821
H        -13.50053       91.90006       96.57409
H        -17.49324       90.66547       97.58281
H        -15.03837       93.25201       97.92176
N        -13.09860       85.48945       93.95810
C        -12.66169       84.15129       93.56377
C        -13.83435       83.17305       93.50136
O        -14.82975       83.47445       92.85922
C        -11.85480       84.18894       92.22854
C        -11.16989       82.83095       91.91925
C        -10.81625       85.32864       92.21157
C        -10.09363       82.38228       92.91531
H        -12.70822       85.85819       94.83658
H        -11.96406       83.80597       94.35407
H        -12.55861       84.39580       91.39384
H        -10.68918       82.89718       90.92015
H        -11.94002       82.04081       91.87911
H        -10.09305       85.23413       93.04638
H        -10.26703       85.33034       91.24610
H        -11.31164       86.31775       92.30141
H        -10.51045       82.22085       93.92836
H         -9.66716       81.41585       92.57471
H         -9.26506       83.11673       92.97046
N        -13.76167       81.94386       94.08972
C        -14.85194       80.96939       94.02649
C        -15.18170       80.32546       95.36485
O        -16.10687       79.52724       95.39739
C        -14.49855       79.86756       93.01810
O        -13.33740       79.17887       93.40624
H        -12.86545       81.66286       94.51575
H        -15.78128       81.45836       93.66605
H        -14.38531       80.32151       92.01566
H        -15.32987       79.13750       92.91886
H        -12.58986       79.52825       92.85475
N        -14.45118       80.55995       96.49538
C        -14.68865       79.81350       97.72683
C        -16.04175       80.14782       98.33977
O        -16.61206       81.16531       97.96869
C        -13.56814       80.11654       98.72083
H        -13.66303       81.21823       96.46859
H        -14.64894       78.73426       97.46317
H        -13.68832       79.52478       99.63668
H        -12.58635       79.85531       98.27187
H        -13.56743       81.19535       98.98610
N        -16.67485       79.34628       99.25024
C        -16.23738       78.01300       99.66011
C        -16.66478       77.72911      101.09866
O        -17.83456       77.92990      101.39511
C        -16.90501       76.98318       98.74341
H        -17.62587       79.63508       99.53076
H        -15.15219       77.87850       99.52307
H        -16.60501       77.16188       97.68874
H        -16.58324       75.95716       99.02523
H        -18.01228       77.04551       98.81007
N        -15.84381       77.19013      102.05132
C        -14.46007       76.77953      101.83517
C        -13.50581       77.96850      101.81077
O        -12.35917       77.78127      101.42973
C        -14.06824       75.74980      102.92584
C        -12.67857       75.11749      102.74685
C        -12.45482       74.02797      103.75727
O        -13.17771       73.04385      103.77087
O        -11.44639       74.12384      104.64450
H        -16.27700       76.96903      102.96310
H        -14.41308       76.23778      100.86474
H        -14.82184       74.93146      102.87926
H        -14.13065       76.22053      103.93236
H        -11.89117       75.88713      102.87995
H        -12.58805       74.67929      101.72986
N        -13.89502       79.21711      102.20691
C        -13.00812       80.36569      102.19808
H        -11.99792       80.12272      101.80518
H        -13.44417       81.16263      101.56079
H        -12.89734       80.75522      103.23077
H        -14.85292       79.37779      102.54726
Ca       -16.97534       84.70602       90.89676
O        -18.64073       86.96858       91.28189
H        -18.67235       87.23749       92.23400
H        -19.56447       86.68256       91.06948
O        -17.45116       84.25765       93.73563
H        -18.40559       84.51951       93.72485
H        -17.18707       84.29369       94.68863
O        -17.37756       81.57870       91.65218
H        -18.02166       81.30945       92.35355
H        -17.63945       81.05054       90.85792

Ca 1.0



