%chk=apoCaM-CA-Ng.loop1.water3.frame1043.chk
%nprocshared=20
%mem=10GB
%nosave
#b3lyp/svp scf=(tight,noincore,xqc) Test 
#IOP(5/87=12) Density=Current Pop=(MK,readradii) iop(6/33=2) iop(6/42=6)

apoCaM-CA-Ng.loop1.water3.frame1043 

   0  1 
C         13.32981       71.65818       32.13639
C         12.66309       70.87022       33.22200
O         12.77012       71.27152       34.37035
H         14.42511       71.68501       32.31610
H         13.13896       71.21715       31.13695
H         12.93633       72.69692       32.14863
N         11.95762       69.73500       32.93765
C         11.22126       68.97958       33.95120
C         12.06580       67.88407       34.59579
O         11.60619       66.75592       34.72025
C          9.88243       68.45649       33.37347
C         10.02877       67.45898       32.24390
O          9.02777       67.00142       31.71771
O         11.23988       67.05585       31.80809
H         11.88405       69.44931       31.95115
H         10.94701       69.67546       34.76986
H          9.29624       69.32391       33.00098
H          9.29870       67.97500       34.18864
N         13.31655       68.15603       35.05797
C         14.12765       67.18516       35.78009
C         13.51136       66.92152       37.15442
O         13.22992       65.76333       37.42561
C         15.62192       67.60769       35.80961
C         16.22571       67.74008       34.38894
C         16.36086       66.39127       33.65884
C         16.95071       66.56779       32.25411
N         17.17157       65.26807       31.61895
H         13.71214       69.08902       34.89332
H         14.11181       66.22201       35.23248
H         16.21639       66.86344       36.38237
H         15.75795       68.57992       36.31421
H         17.24515       68.17221       34.48593
H         15.62197       68.44677       33.77942
H         15.37863       65.89222       33.54041
H         17.02697       65.73504       34.25983
H         17.91920       67.11066       32.31408
H         16.24746       67.16904       31.63419
H         17.54591       65.41499       30.65403
H         17.87034       64.71858       32.17074
H         16.27452       64.73349       31.55802
N         13.17049       67.89492       38.05739
C         13.39148       69.32708       37.89971
C         12.10830       70.06566       37.52860
O         11.05643       69.45293       37.40763
C         14.05495       69.90570       39.16254
C         13.17129       69.83098       40.37241
O         11.89218       70.24204       40.29153
O         13.61824       69.43699       41.43587
H         12.66750       67.59149       38.90695
H         14.07353       69.53186       37.06920
H         14.27244       70.97471       38.98205
H         15.03231       69.41448       39.36588
N         12.16039       71.40290       37.27146
C         11.05403       72.19656       36.76296
C          9.90107       72.41881       37.71409
O          9.89610       71.92026       38.82744
H         13.06916       71.88350       37.34657
H         10.66919       71.74345       35.82755
H         11.45136       73.20457       36.51380
N          8.89939       73.24961       37.29635
C          7.72777       73.66199       38.08018
C          7.02782       74.84284       37.39311
O          7.11024       74.94957       36.17743
C          6.67507       72.53226       38.19607
C          7.12315       71.33427       38.96980
O          7.46499       71.45562       40.26689
O          7.13872       70.23654       38.43747
H          9.03983       73.67111       36.36661
H          8.08168       73.99621       39.07303
H          6.36895       72.22297       37.17117
H          5.76932       72.91295       38.71059
N          6.24377       75.74452       38.05643
C          6.02439       75.80319       39.49117
C          7.26125       76.26173       40.21647
O          7.76463       77.32763       39.88800
H          5.75493       76.45543       37.48872
H          5.63711       74.83845       39.87364
H          5.24690       76.57228       39.69219
N          7.79380       75.52319       41.23240
C          8.98683       75.93514       41.96876
C         10.11911       74.94846       41.75975
O          9.90798       73.89047       41.18639
C          8.67321       76.17418       43.46761
C          8.11054       74.94315       44.18020
O          7.74637       77.22169       43.59354
H          7.34105       74.63106       41.48273
H          9.36337       76.89860       41.56100
H          9.61688       76.44453       43.99883
H          8.26705       78.06601       43.64488
H          7.95041       75.17364       45.25465
H          7.13292       74.64019       43.75043
H          8.82388       74.10172       44.10290
N         11.38621       75.30906       42.12040
C         12.60855       74.55221       41.84622
C         12.72017       73.27444       42.70811
O         11.55990       72.95523       43.42005
C         12.76549       74.20830       40.32637
C         12.39514       75.37903       39.37682
C         14.18123       73.69051       40.01876
C         13.17602       76.67082       39.60766
H         11.51341       76.23744       42.55149
H         13.45337       75.21693       42.13479
H         12.06333       73.38583       40.06708
H         11.31573       75.61411       39.48251
H         12.53964       75.04923       38.32432
H         14.94925       74.44930       40.27464
H         14.39539       72.76655       40.59189
H         14.27439       73.44149       38.94091
H         12.82717       77.43572       38.88221
H         12.99239       77.06154       40.62936
H         14.26220       76.51440       39.45822
N         13.96815       73.13962       43.48484
C         14.02466       71.83825       44.19316
C         13.25280       71.90705       45.50800
O         13.00515       70.87109       46.10900
C         15.48962       71.37956       44.44571
C         16.24561       72.32768       45.38331
O         16.19504       71.29716       43.23273
H         14.75154       73.20860       42.79864
H         13.54903       71.06321       43.54894
H         15.48845       70.37539       44.93101
H         15.85402       70.50068       42.74933
H         16.28011       73.35443       44.96228
H         15.75947       72.36230       46.38108
H         17.28626       71.96559       45.52374
N         12.86078       73.11113       46.01825
C         12.06904       73.27131       47.22967
C         10.70175       72.64315       47.05077
O         10.01731       72.95367       46.08843
C         11.91480       74.76865       47.60380
C         13.25074       75.37376       48.07467
O         11.33983       75.51056       46.55035
H         13.14469       73.96483       45.52260
H         12.59083       72.78048       48.08140
H         11.23077       74.84392       48.47704
H         12.06358       75.85920       45.96606
H         13.10295       76.43506       48.36434
H         13.62074       74.81967       48.96474
H         14.02639       75.32231       47.28215
N         10.23901       71.76111       47.97979
C          8.95045       71.07970       47.93240
C          8.91150       70.10212       46.77497
O          7.97718       70.11323       45.98574
C          7.75515       72.06481       47.92354
C          7.79227       73.04625       49.10615
C          6.53597       73.93078       49.19574
C          6.33302       74.84844       47.97774
N          5.15396       75.69573       48.15801
H         10.83711       71.55326       48.79402
H          8.87080       70.46467       48.85669
H          6.81628       71.47111       47.97970
H          7.74450       72.63209       46.97138
H          8.69447       73.69214       49.03436
H          7.85706       72.46206       50.04967
H          6.63473       74.56621       50.10280
H          5.64112       73.28333       49.32340
H          6.19215       74.24145       47.05832
H          7.23011       75.49246       47.84310
H          4.29935       75.10336       48.27315
H          5.27415       76.30724       48.99794
H          5.03325       76.30073       47.31373
N          9.92315       69.20311       46.63509
C          9.98116       68.19366       45.59164
C         11.09053       68.58527       44.61147
O         10.81959       69.55772       43.92676
C          9.96192       66.79831       46.24020
C          8.61626       66.53332       46.93652
C          8.58198       65.15420       47.52702
O          7.73902       64.35081       47.16111
O          9.47601       64.79863       48.46946
H         10.70934       69.23438       47.30274
H          9.06552       68.20759       44.95641
H         10.73760       66.71872       47.02522
H         10.10262       66.03058       45.44711
H          7.78845       66.63915       46.20037
H          8.45613       67.27183       47.75158
N         12.31589       68.01033       44.39589
C         12.98079       66.93935       45.10196
H         13.94854       67.32641       45.48736
H         12.44874       66.54761       45.96021
H         13.18938       66.10657       44.40039
H         12.88572       68.42065       43.64113
Ca        10.95362       71.39248       41.93759
O          9.20954       68.82580       39.93083
H         10.06725       68.47180       39.59060
H          8.52203       68.27206       39.48320
O          7.69212       68.98427       42.40457
H          6.95808       68.96822       41.74021
H          7.23659       68.91342       43.28026
O          8.23291       71.66386       43.42223
H          7.48350       71.85313       44.04073
H          9.02274       71.57061       44.01126

Ca 1.0



