%chk=apoCaM-CA-Ng.loop1.water4.frame180.chk
%nprocshared=20
%mem=10GB
%nosave
#b3lyp/svp scf=(tight,noincore,xqc) Test 
#IOP(5/87=12) Density=Current Pop=(MK,readradii) iop(6/33=2) iop(6/42=6)

apoCaM-CA-Ng.loop1.water4.frame180 

   0  1 
C         -0.74863       58.23222        4.68029
C         -0.97898       59.65416        5.10043
O         -2.12040       60.09181        5.07637
H          0.32291       57.95251        4.75689
H         -1.34275       57.55073        5.32355
H         -1.06936       58.10612        3.62415
N          0.06778       60.44854        5.46765
C         -0.08297       61.85782        5.81777
C          0.58728       62.70082        4.74268
O          1.42525       63.53834        5.04344
C          0.42575       62.12989        7.25802
C          1.88598       61.82426        7.49072
O          2.31181       60.68528        7.38557
O          2.72271       62.80718        7.87378
H          1.01687       60.04926        5.43754
H         -1.15623       62.14053        5.80771
H         -0.17076       61.52403        7.97468
H          0.24834       63.20153        7.49262
N          0.26541       62.47597        3.43381
C          0.94056       63.08906        2.29125
C         -0.03150       63.19600        1.11722
O         -0.56940       62.16144        0.74430
C          2.10002       62.17413        1.82853
C          3.24751       61.99902        2.83763
C          4.02802       63.30484        3.07746
C          5.26637       63.10765        3.96662
N          4.91976       62.71479        5.33339
H         -0.39879       61.71181        3.23669
H          1.36049       64.06972        2.55924
H          2.53307       62.57895        0.88679
H          1.68750       61.16457        1.60493
H          3.95302       61.25631        2.40596
H          2.85449       61.57579        3.78355
H          3.38433       64.08497        3.52994
H          4.37948       63.68321        2.09296
H          5.81861       64.07269        4.00446
H          5.93904       62.34665        3.51300
H          5.79700       62.65070        5.89861
H          4.29570       63.43467        5.76373
H          4.45450       61.78010        5.34902
N         -0.31137       64.34038        0.42039
C          0.17200       65.69504        0.66213
C          1.68501       65.83244        0.55466
O          2.30294       66.24989        1.52508
C         -0.40632       66.25882        1.98484
C         -1.90930       66.22043        1.97836
O         -2.53566       66.79981        1.10887
O         -2.58034       65.54084        2.92311
H         -0.95733       64.24408       -0.37940
H         -0.22782       66.34377       -0.14103
H         -0.08296       67.31478        2.09633
H         -0.03883       65.70217        2.86841
N          2.38879       65.55583       -0.58407
C          1.83111       65.03399       -1.83065
C          2.96141       64.71026       -2.79884
O          3.91410       64.09209       -2.34255
H          3.40921       65.70868       -0.53577
H          1.08706       65.73287       -2.26555
H          1.32825       64.07162       -1.60279
N          2.97014       64.98599       -4.13965
C          1.85379       65.49133       -4.93920
C          1.62174       66.98881       -4.82594
O          2.39219       67.69056       -4.18514
C          2.07753       65.12707       -6.43824
C          3.22085       65.86942       -7.09833
O          3.00085       66.59632       -8.05426
O          4.48753       65.72339       -6.66537
H          3.79352       64.63015       -4.64686
H          0.93716       64.95279       -4.61476
H          1.15171       65.34412       -7.01184
H          2.25472       64.03445       -6.52828
N          0.56620       67.54190       -5.49798
C          0.29603       68.96447       -5.58961
C         -0.10735       69.61651       -4.29384
O         -0.34745       70.81543       -4.32980
H         -0.06130       66.92477       -6.03372
H         -0.54600       69.12085       -6.30055
H          1.18895       69.48009       -6.00437
N         -0.20856       68.92845       -3.11841
C         -0.56894       69.57762       -1.86856
C          0.62450       69.55243       -0.92630
O          1.54353       68.76707       -1.11424
C         -1.82296       68.91711       -1.25517
C         -2.99894       68.89094       -2.24384
O         -2.19424       69.61659       -0.09651
H         -0.01296       67.91952       -3.08370
H         -0.80686       70.64795       -2.05443
H         -1.57024       67.86967       -1.00012
H         -2.96377       69.13617        0.30520
H         -3.29187       69.92205       -2.53021
H         -2.73348       68.31716       -3.15701
H         -3.87127       68.38466       -1.77701
N          0.71360       70.49260        0.04963
C          1.85607       70.66050        0.94260
C          1.42711       70.58280        2.40321
O          2.21067       70.95296        3.26741
C          2.59743       71.99651        0.59502
C          1.70063       73.25920        0.46467
C          3.37124       71.82047       -0.72502
C          0.90805       73.62174        1.71658
H         -0.05913       71.16971        0.13619
H          2.60568       69.84696        0.82096
H          3.36837       72.18432        1.37510
H          0.99257       73.14337       -0.38450
H          2.35575       74.12644        0.22687
H          4.08395       70.97126       -0.64534
H          2.68037       71.62607       -1.57276
H          3.96494       72.73194       -0.95231
H          0.16273       72.83945        1.95967
H          1.59224       73.77572        2.57636
H          0.34980       74.56380        1.53007
N          0.21120       70.07739        2.75941
C         -0.27824       70.05392        4.13171
C          0.64254       69.29151        5.06698
O          0.86933       68.10436        4.87385
C         -1.69048       69.41581        4.22064
C         -2.75099       70.22137        3.47164
O         -2.09121       69.33640        5.56774
H         -0.40217       69.70292        2.02417
H         -0.36415       71.10472        4.48729
H         -1.65097       68.39585        3.76896
H         -2.06464       68.37913        5.82991
H         -2.83554       71.23898        3.90739
H         -2.51542       70.31447        2.39647
H         -3.73184       69.71116        3.56789
N          1.09213       69.91983        6.18800
C          1.70194       69.23864        7.31648
C          0.69126       69.31048        8.43712
O          0.30151       70.41237        8.80576
C          3.02203       69.92352        7.75464
C          4.11010       69.85502        6.68111
O          3.50287       69.35716        8.95078
H          0.86100       70.91758        6.31865
H          1.91451       68.17141        7.08227
H          2.81294       70.99731        7.95779
H          3.63213       68.38436        8.79810
H          3.77086       70.35053        5.74848
H          5.02166       70.37576        7.04657
H          4.37062       68.79796        6.46091
N          0.22674       68.17968        9.03712
C         -0.70511       68.23390       10.15719
C         -1.82934       67.20824       10.08681
O         -2.69530       67.27980       10.94710
C          0.09836       68.20564       11.47278
C          0.96091       66.94888       11.67354
C          1.96144       67.17709       12.81546
C          2.88057       65.96589       13.01131
N          3.92448       66.26014       13.99342
H          0.64520       67.27778        8.76559
H         -1.22487       69.21810       10.15303
H         -0.57288       68.34545       12.34823
H          0.77610       69.08784       11.42976
H          1.56121       66.75164       10.76170
H          0.31031       66.06901       11.86946
H          1.42673       67.40167       13.76400
H          2.59397       68.05382       12.54913
H          3.36650       65.70479       12.04463
H          2.27730       65.09485       13.34961
H          3.49907       66.52065       14.91226
H          4.52509       65.41399       14.12029
H          4.52465       67.04561       13.64903
N         -1.90868       66.23830        9.12155
C         -3.01102       65.27806        9.06647
C         -2.54099       63.90471        9.49045
O         -1.34881       63.68067        9.64948
C         -3.62954       65.23224        7.65121
C         -4.31941       66.55065        7.28136
C         -4.89705       66.48540        5.89686
O         -5.82434       65.55631        5.59274
O         -4.53979       67.28303        5.04498
H         -1.16397       66.14013        8.41860
H         -3.80303       65.55373        9.79565
H         -4.39232       64.42421        7.60275
H         -2.83325       64.99592        6.90852
H         -3.59388       67.38806        7.34310
H         -5.14566       66.74668        7.99740
N         -3.46450       62.94367        9.76834
C         -3.09648       61.63190       10.24943
H         -2.50292       61.72513       11.18438
H         -4.01263       61.04473       10.47431
H         -2.50332       61.09773        9.47916
H         -4.46817       63.16399        9.67670
Ca        -4.83414       65.45315        2.75185
O         -3.53058       63.00759        4.25387
H         -3.55101       62.50309        3.40240
H         -2.60016       63.33806        4.32093
O         -5.81379       68.55510        2.25551
H         -6.29910       68.79338        1.42630
H         -6.49949       68.13504        2.83324
O         -3.85569       63.74318        0.50178
H         -3.29911       63.01968        0.88387
H         -3.50217       63.87520       -0.41321
O         -5.77720       66.14714       -0.16471
H         -5.36092       65.71620       -0.95270
H         -5.80454       67.10911       -0.39564

Ca 1.0



