%chk=apoCaM-CA-Ng.loop3.water7.frame1171.chk
%nprocshared=20
%mem=10GB
%nosave
#b3lyp/svp scf=(tight,noincore,xqc) Test 
#IOP(5/87=12) Density=Current Pop=(MK,readradii) iop(6/33=2) iop(6/42=6)

apoCaM-CA-Ng.loop3.water7.frame1171 

   0  1 
C         93.48371       55.82377      -13.88827
C         94.83532       56.13154      -14.45877
O         95.36774       57.19839      -14.18922
H         92.75895       55.66073      -14.71282
H         93.54410       54.90453      -13.26797
H         93.12405       56.66016      -13.25127
N         95.45601       55.21956      -15.25751
C         96.78025       55.42252      -15.83256
C         96.70440       55.38846      -17.35057
O         97.36600       54.57078      -17.97565
C         97.78096       54.40261      -15.22806
C         97.49224       52.93901      -15.47386
O         98.32392       52.01460      -14.95777
O         96.53241       52.57306      -16.13349
H         94.96432       54.33505      -15.45260
H         97.17163       56.42699      -15.56198
H         97.81033       54.56196      -14.12806
H         98.79350       54.61966      -15.62643
N         95.92112       56.29168      -18.01373
C         95.79824       56.35500      -19.46998
C         97.15397       56.64948      -20.08021
O         97.68999       55.84821      -20.83390
C         95.12034       55.08443      -20.02954
C         93.69731       54.94270      -19.45870
C         92.90377       53.77529      -20.05885
C         93.48261       52.39880      -19.70158
N         92.63900       51.33164      -20.23899
H         95.39386       56.98464      -17.46094
H         95.13984       57.21085      -19.74045
H         95.72636       54.18513      -19.80063
H         95.04826       55.18120      -21.13518
H         93.13712       55.87429      -19.69434
H         93.73310       54.83304      -18.35259
H         92.84890       53.89154      -21.16335
H         91.87004       53.83240      -19.65313
H         93.53691       52.29820      -18.59453
H         94.50721       52.29101      -20.11640
H         91.67432       51.40002      -19.83991
H         92.59362       51.40056      -21.28175
H         93.04736       50.40571      -19.97703
N         97.77181       57.81378      -19.74244
C         99.13327       58.16850      -20.12675
C         99.93880       58.29874      -18.84516
O        100.57438       59.31662      -18.60350
C         99.13395       59.46047      -20.98740
C         98.56652       60.69033      -20.30645
O         98.13631       60.64770      -19.16556
O         98.55163       61.86917      -20.95066
H         97.26100       58.45020      -19.11411
H         99.58789       57.35349      -20.73164
H         98.54509       59.27195      -21.91088
H        100.17988       59.68481      -21.28868
N         99.83801       57.30931      -17.91700
C        100.32559       57.42952      -16.55917
C        101.07160       56.20220      -16.11312
O        101.32827       55.32420      -16.92553
H         99.26461       56.48176      -18.13526
H         99.42485       57.51628      -15.91927
H        100.95747       58.33276      -16.41250
N        101.44706       56.02889      -14.81566
C        101.18090       56.96518      -13.72524
C        100.37404       56.23900      -12.66085
O        100.85284       55.21470      -12.19290
C        102.54373       57.47143      -13.20401
C        102.44827       58.47241      -12.07734
N        102.05124       58.09960      -10.83787
O        102.77409       59.63262      -12.27972
H        101.95854       55.16269      -14.57991
H        100.62638       57.85712      -14.06999
H        103.04414       57.96581      -14.06738
H        103.19153       56.62681      -12.88330
H        101.81542       57.12115      -10.62430
H        102.01173       58.78957      -10.07351
N         99.16270       56.66176      -12.18442
C         98.45274       57.87932      -12.58864
C         97.21105       58.12857      -11.72899
O         96.90836       57.30490      -10.87502
H         98.75235       56.06795      -11.44826
H         98.17098       57.82414      -13.66097
H         99.12943       58.74706      -12.43364
N         96.48586       59.28961      -11.83404
C         95.45242       59.63330      -10.84842
C         94.11465       60.04767      -11.45944
O         94.02337       60.24336      -12.66385
C         96.02912       60.76070       -9.95891
C         95.32863       60.92698       -8.63472
C         94.70244       62.13451       -8.28652
C         95.33288       59.86455       -7.71417
C         94.08800       62.27182       -7.03581
C         94.71940       60.00326       -6.46949
C         94.09471       61.20866       -6.12446
O         93.50430       61.35608       -4.92166
H         96.76942       59.99751      -12.52961
H         95.25077       58.74539      -10.21576
H         96.05034       61.70785      -10.54353
H         97.08252       60.51087       -9.70381
H         94.69145       62.96810       -8.97731
H         95.82154       58.92891       -7.95644
H         93.60755       63.20561       -6.77355
H         94.73702       59.17407       -5.77338
H         93.49756       60.64573       -4.26374
N         93.01993       60.18549      -10.64944
C         91.69380       60.62229      -11.10505
C         91.73705       62.06142      -11.61638
O         92.65904       62.78785      -11.27718
C         90.62646       60.42590       -9.96676
C         90.93004       61.28232       -8.70128
C         89.19193       60.68255      -10.46960
C         90.03982       60.94748       -7.50094
H         93.13783       59.91414       -9.66569
H         91.41588       59.95556      -11.95130
H         90.68039       59.35174       -9.67973
H         90.84316       62.36504       -8.93513
H         91.96179       61.09699       -8.35694
H         88.44315       60.38613       -9.70756
H         89.03245       61.75656      -10.69907
H         88.98457       60.07570      -11.37545
H         90.36526       61.54547       -6.62294
H         88.97658       61.18944       -7.69589
H         90.13410       59.87072       -7.24219
N         90.79066       62.51542      -12.49586
C         90.81697       63.87420      -13.04443
C         89.96004       64.01337      -14.30626
O         89.30778       63.06983      -14.72254
C         90.41818       64.90158      -11.96516
O         89.09386       64.68973      -11.55919
H         90.07964       61.84888      -12.82495
H         91.85563       64.08565      -13.38071
H         90.52618       65.93227      -12.36996
H         91.09310       64.81183      -11.08687
H         88.86027       65.45546      -10.97146
N         89.98495       65.19062      -14.99979
C         89.35549       65.42219      -16.29593
C         87.84759       65.24060      -16.27579
O         87.31900       64.52886      -17.12122
C         90.03396       64.55775      -17.37285
H         90.53561       65.97250      -14.61866
H         89.54327       66.48470      -16.56876
H         89.62391       64.79692      -18.37719
H         91.12605       64.75786      -17.38599
H         89.87548       63.47596      -17.17786
N         87.08168       65.87825      -15.34360
C         85.62232       65.82917      -15.32340
C         85.12603       64.39334      -15.36104
O         84.40251       64.02477      -16.27754
C         85.05709       66.67099      -16.47925
H         87.55280       66.42666      -14.60760
H         85.26274       66.30353      -14.38343
H         85.36953       66.26859      -17.46561
H         83.94662       66.68523      -16.43450
H         85.41920       67.71760      -16.39277
N         85.50992       63.51743      -14.39300
C         85.13878       62.10860      -14.39971
C         84.27416       61.81635      -13.19312
O         83.14354       61.38466      -13.37282
C         86.42295       61.25063      -14.43263
C         86.20195       59.72735      -14.49312
C         85.57087       59.25804      -15.77953
O         86.19256       58.51939      -16.52702
O         84.31203       59.60996      -16.10140
H         86.10898       63.86389      -13.62792
H         84.54968       61.87644      -15.30955
H         87.02198       61.47347      -13.52303
H         87.03429       61.54716      -15.31367
H         85.59285       59.38566      -13.63007
H         87.20391       59.25110      -14.40767
N         84.73238       62.05199      -11.93131
C         83.93819       61.82993      -10.74037
H         82.92522       61.43798      -10.97130
H         84.45633       61.10216      -10.08279
H         83.82246       62.79062      -10.19588
H         85.68498       62.42189      -11.79844
Ca        97.80766       63.63046      -19.74443
O         97.43949       64.96263      -22.24847
H         97.30278       65.76638      -22.80882
H         96.76307       64.31336      -22.56733
O         96.51153       62.27280      -16.89464
H         95.59875       61.90916      -17.01734
H         96.97464       61.59758      -16.33775
O        100.83622       64.31927      -19.89298
H        100.34807       64.92191      -20.50873
H        100.86432       64.81217      -19.03463
O        100.29567       62.30274      -16.93680
H         99.56934       61.96209      -17.51491
H        101.01890       62.54426      -17.56791
O         95.80219       65.84949      -19.09816
H         95.50147       66.01633      -18.16975
H         96.61721       66.40302      -19.19874
O         94.96823       62.45476      -19.88220
H         94.49177       62.70231      -20.71406
H         94.77556       61.49115      -19.76094
O         98.47197       65.04567      -17.03868
H         99.26464       64.92879      -16.45715
H         97.76161       65.36874      -16.42937

Ca 1.0



