%chk=apoCaM-CA-Ng.loop2.water4.frame11.chk
%nprocshared=20
%mem=10GB
%nosave
#b3lyp/svp scf=(tight,noincore,xqc) Test 
#IOP(5/87=12) Density=Current Pop=(MK,readradii) iop(6/33=2) iop(6/42=6)

apoCaM-CA-Ng.loop2.water4.frame11 

   -2  1 
C         53.88251       52.60720       64.13475
C         52.98592       53.71112       64.60981
O         51.82048       53.45764       64.87888
H         54.74204       52.49363       64.82711
H         53.32995       51.64380       64.08748
H         54.25811       52.84921       63.11818
N         53.46991       54.97952       64.74261
C         52.63424       56.09607       65.17916
C         51.56861       56.46074       64.13885
O         50.67485       57.22858       64.46568
C         53.52108       57.31665       65.50114
C         52.74532       58.45165       66.10921
O         52.71710       59.54090       65.55944
O         52.08388       58.27302       67.26899
H         54.47146       55.14111       64.55188
H         52.13281       55.77828       66.12173
H         54.03246       57.65428       64.57222
H         54.29967       57.01380       66.23475
N         51.59086       55.93980       62.87457
C         50.56928       56.16584       61.85645
C         49.21954       55.67311       62.34093
O         48.21181       56.34891       62.18414
C         50.54619       57.62448       61.38371
H         52.35542       55.30620       62.60304
H         50.84159       55.53795       60.97839
H         49.81485       57.74302       60.55563
H         50.26078       58.31058       62.20738
H         51.54998       57.91237       61.00707
N         49.15892       54.47870       62.98503
C         47.95592       53.85304       63.49702
C         47.16031       54.80174       64.39394
O         45.99301       55.04823       64.12103
C         47.12115       53.27549       62.32067
C         46.40516       52.04238       62.78101
O         47.18773       50.98869       63.07293
O         45.19065       51.98181       62.87900
H         50.03893       53.96693       63.14499
H         48.31160       52.99697       64.11768
H         47.79869       52.91670       61.51433
H         46.45913       54.04778       61.87666
N         47.73960       55.37688       65.48741
C         47.03600       56.30126       66.37347
C         46.75538       55.69435       67.73570
O         46.15103       56.36327       68.56176
H         48.71596       55.13531       65.71824
H         46.04992       56.58857       65.94880
H         47.63576       57.23070       66.47587
N         47.10586       54.40864       68.01675
C         46.74987       53.69737       69.24369
C         47.45511       54.25817       70.46180
O         48.19422       55.22717       70.34927
C         47.10415       52.20336       69.06411
C         46.36876       51.65455       67.87143
N         47.04653       51.25643       66.77386
O         45.14750       51.61065       67.88064
H         47.59841       53.87211       67.29165
H         45.65047       53.77225       69.40391
H         46.82446       51.59109       69.94469
H         48.20395       52.11485       68.92029
H         48.07514       51.30819       66.73540
H         46.53197       50.93055       65.94792
N         47.28410       53.65652       71.67317
C         47.92508       54.10799       72.88742
C         48.95383       53.10006       73.34787
O         48.61256       51.95177       73.59435
H         46.68292       52.82334       71.74843
H         47.14867       54.24487       73.67103
H         48.40809       55.09743       72.74241
N         50.24024       53.50197       73.54500
C         51.26583       52.66683       74.16794
C         51.80542       51.51900       73.30616
O         52.50606       50.68688       73.86464
C         52.43162       53.55277       74.68862
C         53.17753       54.30742       73.57289
O         51.91597       54.48165       75.60802
H         50.44465       54.49647       73.37651
H         50.79929       52.20458       75.06751
H         53.15323       52.88351       75.21248
H         52.68009       54.80849       76.15083
H         52.52347       55.02006       73.03195
H         54.01554       54.88912       74.00972
H         53.59668       53.60526       72.83691
N         51.58591       51.42080       71.96160
C         52.14282       50.33690       71.13167
C         51.03712       49.60180       70.38189
O         49.88117       49.98602       70.49521
C         53.27017       50.87961       70.18376
C         52.82913       52.13100       69.37589
C         54.54734       51.13778       71.00529
C         53.88287       52.63335       68.38202
H         51.03438       52.15706       71.49734
H         52.60592       49.55052       71.76649
H         53.54930       50.08277       69.46360
H         52.59594       52.97129       70.06427
H         51.91340       51.87988       68.79940
H         54.39241       51.92751       71.75590
H         54.85061       50.20995       71.53641
H         55.40200       51.41866       70.35860
H         54.14735       51.83628       67.65630
H         53.47943       53.50452       67.82326
H         54.80016       52.97885       68.90186
N         51.33137       48.52063       69.58809
C         50.32184       47.82665       68.79028
C         50.48275       46.29592       68.79351
O         49.76289       45.63570       68.05709
C         50.36129       48.43367       67.37480
C         49.11684       48.19754       66.55725
O         48.92260       48.98333       65.49224
O         48.21754       47.46486       66.93239
H         52.31783       48.25859       69.44902
H         49.31199       48.06351       69.19130
H         51.27943       48.14666       66.81840
H         50.38848       49.53890       67.51034
N         51.36156       45.64564       69.61474
C         51.49053       44.18570       69.63049
C         52.12507       43.68900       68.33311
O         53.24995       44.09069       68.07105
C         52.39033       43.73489       70.80505
C         52.59147       42.23467       70.79360
C         51.52089       41.36014       71.04763
C         53.85548       41.70014       70.48865
C         51.71281       39.97563       70.98886
C         54.04129       40.31710       70.42531
C         52.97107       39.45500       70.67435
H         51.92226       46.19189       70.28416
H         50.48359       43.75107       69.79529
H         51.95730       44.05019       71.77885
H         53.37340       44.24520       70.69887
H         50.53825       41.74909       71.28353
H         54.69300       42.35359       70.27847
H         50.88482       39.30554       71.18053
H         55.01463       39.91494       70.17594
H         53.11720       38.38401       70.62110
N         51.53174       42.77275       67.50258
C         52.15560       42.25472       66.29234
C         52.56660       43.34991       65.32878
O         53.71577       43.38246       64.91213
C         51.06799       41.36755       65.66580
C         50.34892       40.85832       66.89088
C         50.25859       42.12226       67.74463
H         53.03267       41.63410       66.58791
H         50.32402       41.98540       65.11533
H         51.45280       40.58957       64.97175
H         49.37716       40.35544       66.69996
H         51.03018       40.13720       67.40023
H         49.44198       42.80044       67.41389
H         50.10647       41.79961       68.79199
N         51.65733       44.28665       64.93485
C         51.95040       45.34085       63.96620
C         52.98413       46.34105       64.47392
O         53.45027       47.14631       63.67943
C         50.65246       46.09113       63.59690
C         49.62558       45.16230       62.92327
C         48.32805       45.87217       62.68780
O         47.89059       45.99761       61.55597
O         47.61919       46.33824       63.73340
H         50.70713       44.22349       65.32881
H         52.35663       44.85966       63.04810
H         50.87789       46.92495       62.89580
H         50.22439       46.52324       64.52777
H         49.39772       44.28126       63.55609
H         50.04573       44.79653       61.96084
N         53.38429       46.36830       65.77439
C         54.39228       47.28109       66.26482
H         55.35512       47.09483       65.74292
H         54.07096       48.33050       66.10110
H         54.54617       47.12020       67.35411
H         52.95364       45.73507       66.45111
Ca        47.02284       49.13980       64.30441
O         45.41843       46.60491       66.48429
H         45.94510       46.16251       67.19643
H         44.54354       46.14266       66.50329
O         44.53365       47.46400       63.32381
H         43.96180       47.63732       62.53447
H         44.10815       46.69229       63.77516
O         47.43224       48.85121       61.18734
H         47.36718       49.75890       60.79805
H         48.36935       48.78217       61.50077
O         44.14570       49.60285       65.58245
H         43.40852       49.06742       65.96936
H         43.86307       50.54343       65.70742

Ca 1.0



