%chk=apoCaM-CA-Ng.loop3.water5.frame489.chk
%nprocshared=20
%mem=10GB
%nosave
#b3lyp/svp scf=(tight,noincore,xqc) Test 
#IOP(5/87=12) Density=Current Pop=(MK,readradii) iop(6/33=2) iop(6/42=6)

apoCaM-CA-Ng.loop3.water5.frame489 

   0  1 
C         31.61224       53.91506       93.36062
C         30.19789       53.47370       93.12004
O         29.58537       52.90244       94.01058
H         32.28461       53.41027       92.63415
H         31.69208       55.01377       93.22350
H         31.94136       53.65583       94.38919
N         29.61951       53.69916       91.90896
C         28.26678       53.26872       91.56985
C         27.23964       53.94498       92.46186
O         27.06758       55.15220       92.35188
C         28.00554       53.57802       90.07464
C         26.60873       53.27492       89.62034
O         26.40524       52.43123       88.76268
O         25.58065       53.99423       90.10534
H         30.18829       54.17322       91.18891
H         28.20426       52.16698       91.71168
H         28.73028       52.98851       89.47106
H         28.18975       54.65617       89.87141
N         26.52208       53.21938       93.37667
C         25.48187       53.80864       94.21662
C         26.06200       54.20603       95.56912
O         25.50266       53.87120       96.60621
C         24.30634       52.81428       94.40678
C         23.69860       52.21623       93.12957
C         22.97881       53.23891       92.24306
C         22.19954       52.56607       91.09280
N         23.05946       51.84201       90.15376
H         26.74261       52.21969       93.50231
H         25.10731       54.74006       93.73846
H         23.50053       53.29741       95.00314
H         24.69067       51.95090       94.99529
H         22.95006       51.46134       93.45712
H         24.49130       51.68918       92.55998
H         23.69985       53.98061       91.84440
H         22.23551       53.78173       92.86676
H         21.64663       53.35418       90.53629
H         21.45022       51.86257       91.51884
H         23.57407       51.06641       90.62695
H         22.46451       51.42304       89.40353
H         23.73020       52.49789       89.70214
N         27.21569       54.92153       95.62615
C         27.81820       55.36402       96.86863
C         27.04638       56.58097       97.39230
O         26.88452       57.54762       96.66190
C         29.32843       55.61626       96.63160
C         29.95789       56.12743       97.87848
O         30.87847       55.46500       98.59262
O         29.58659       57.19761       98.30228
H         27.70805       55.14434       94.75195
H         27.78812       54.53837       97.61662
H         29.49008       56.36140       95.82243
H         29.81009       54.65897       96.33301
N         26.54726       56.58816       98.66252
C         25.74092       57.65988       99.23997
C         26.41992       59.01940       99.32286
O         25.73874       60.01187       99.10729
H         26.71816       55.76548       99.26009
H         25.45729       57.36488      100.27341
H         24.79247       57.75946       98.66714
N         27.74161       59.15180       99.63632
C         28.42884       60.44134       99.74349
C         29.32912       60.76182       98.54201
O         30.01353       61.77526       98.58374
C         29.21870       60.54092      101.07261
C         30.40879       59.55730      101.21422
N         31.41430       60.08151      102.13125
O         29.97604       58.32071      101.70872
H         28.28399       58.29890       99.79175
H         27.68378       61.26732       99.76514
H         28.54311       60.44267      101.94926
H         29.61816       61.57862      101.10029
H         31.70154       61.03792      101.82566
H         31.02841       60.13011      103.10125
N         29.33635       60.00045       97.41290
C         30.15419       60.29569       96.24394
C         31.63218       60.14445       96.52710
O         32.40099       61.05942       96.26965
H         28.70410       59.19583       97.34472
H         29.91895       61.30893       95.85169
H         29.90153       59.55922       95.44893
N         32.08700       58.97404       97.04253
C         33.47996       58.61945       97.27567
C         33.73428       58.48532       98.77291
O         32.79731       58.54967       99.55585
C         33.70697       57.29370       96.49747
C         35.03074       56.58249       96.63900
C         36.23449       57.18341       96.23929
C         35.05483       55.26600       97.13910
C         37.44134       56.47935       96.34437
C         36.25711       54.56438       97.23653
C         37.45652       55.16860       96.83848
O         38.62440       54.50076       96.92704
H         31.38897       58.26218       97.26913
H         34.15403       59.41940       96.89796
H         33.54274       57.49613       95.41667
H         32.90789       56.58661       96.81455
H         36.23744       58.19152       95.84573
H         34.14002       54.77258       97.44553
H         38.36584       56.95038       96.03701
H         36.25284       53.55094       97.61889
H         38.67261       53.59367       97.26256
N         35.00429       58.34512       99.24425
C         35.34134       58.21132      100.66176
C         34.88277       59.43680      101.43690
O         34.10854       59.27960      102.36771
C         36.87116       57.93480      100.83588
C         37.20591       56.54951      100.21782
C         37.29255       57.96905      102.31839
C         38.69532       56.21007      100.18233
H         35.77014       58.35026       98.55754
H         34.80670       57.32857      101.07554
H         37.43934       58.73150      100.30496
H         36.85668       56.52064       99.17200
H         36.66533       55.75116      100.77281
H         38.38278       57.81022      102.43271
H         37.09349       58.96455      102.75458
H         36.74582       57.20017      102.90308
H         39.12520       56.13384      101.20005
H         38.82859       55.22238       99.69232
H         39.24786       56.97390       99.59601
N         35.31681       60.68627      101.11827
C         34.89871       61.86943      101.86530
C         35.37662       61.80760      103.30258
O         34.55888       61.97771      104.19681
C         35.40782       63.15617      101.19959
O         34.90829       63.26304       99.89275
H         35.95048       60.79735      100.31234
H         33.79034       61.94197      101.85707
H         36.51661       63.16633      101.16234
H         35.08896       64.04673      101.79104
H         33.93908       63.46943       99.97287
N         36.68841       61.55755      103.59959
C         37.23794       61.57060      104.95451
C         36.54702       60.60340      105.91774
O         36.76783       60.73123      107.11457
C         37.18812       63.00602      105.50115
H         37.34259       61.37507      102.82346
H         38.31689       61.30092      104.91387
H         37.72574       63.68857      104.80858
H         36.14551       63.36384      105.62118
H         37.69539       63.06003      106.48854
N         35.71949       59.60494      105.48744
C         34.93269       58.77862      106.39399
C         35.45620       57.36118      106.44176
O         35.55506       56.70781      105.41293
C         33.46712       58.79464      105.96080
H         35.62121       59.42449      104.48068
H         34.96147       59.19816      107.42302
H         33.08196       59.83587      105.96567
H         33.35681       58.37914      104.93834
H         32.85658       58.18634      106.66254
N         35.79737       56.82626      107.64959
C         36.31278       55.48375      107.87189
C         37.65601       55.33291      107.17562
O         37.86744       54.38318      106.43346
C         35.25489       54.42467      107.45830
C         35.51275       53.01344      108.01641
C         35.35567       52.97097      109.51244
O         34.29017       53.27600      110.02628
O         36.38040       52.57907      110.29211
H         35.68825       57.41164      108.49217
H         36.48601       55.39542      108.96788
H         35.19869       54.37738      106.34989
H         34.25361       54.74363      107.82290
H         36.52001       52.65202      107.72370
H         34.76155       52.31838      107.58263
N         38.60961       56.29027      107.34647
C         39.89266       56.23165      106.68224
H         40.46177       55.34746      107.03702
H         39.74977       56.16848      105.58187
H         40.47628       57.14984      106.90768
H         38.40753       57.10873      107.94110
Ca        30.93514       56.59614      100.54179
O         29.04331       53.93558      100.51493
H         28.09776       54.21399      100.60303
H         29.08504       53.47344       99.64052
O         32.86889       56.52851      103.13025
H         32.65835       57.19735      102.43287
H         33.76899       56.19300      102.89353
O         27.73482       56.55491      102.17992
H         27.73111       57.38119      102.72546
H         28.16941       55.87957      102.75854
O         30.59204       54.63598      103.14700
H         30.92224       54.90478      104.04083
H         30.75096       53.65986      103.10631
O         32.91871       54.18300      100.60877
H         33.12636       53.68644      101.43975
H         32.71178       53.47959       99.94325

Ca 1.0



