%chk=apoCaM-CA-Ng.loop1.water1.frame827.chk
%nprocshared=20
%mem=10GB
%nosave
#b3lyp/svp scf=(tight,noincore,xqc) Test 
#IOP(5/87=12) Density=Current Pop=(MK,readradii) iop(6/33=2) iop(6/42=6)

apoCaM-CA-Ng.loop1.water1.frame827 

   0  1 
C         39.15927       83.53387      103.39679
C         38.42592       82.63095      102.44595
O         37.73316       81.72177      102.87761
H         40.24708       83.52226      103.17788
H         38.78312       84.57314      103.26370
H         38.98978       83.23414      104.45130
N         38.50691       82.88015      101.11479
C         37.72658       82.20169      100.08424
C         38.62846       81.61962       99.01006
O         39.50209       82.30960       98.50749
C         36.68454       83.19251       99.50988
C         37.20348       84.60937       99.38607
O         38.18596       84.93567       98.52637
O         36.75309       85.47240      100.12301
H         39.10981       83.66390      100.81752
H         37.13242       81.36029      100.50604
H         35.85764       83.22963      100.25407
H         36.24376       82.80927       98.56264
N         38.46174       80.32405       98.61357
C         39.27845       79.68611       97.58598
C         38.85288       80.05662       96.16525
O         39.53256       79.61353       95.24829
C         39.25244       78.14608       97.77309
C         39.89549       77.75349       99.11604
C         39.91404       76.23766       99.34817
C         40.64863       75.91675      100.66070
N         40.68377       74.47806      100.91748
H         37.73538       79.75690       99.07797
H         40.33645       80.00599       97.71404
H         39.83872       77.65950       96.96219
H         38.20569       77.77142       97.71568
H         39.34778       78.23169       99.95627
H         40.94330       78.12643       99.11860
H         40.44024       75.73621       98.50678
H         38.87046       75.85586       99.39693
H         40.14073       76.42684      101.50953
H         41.69242       76.29921      100.59861
H         41.16943       73.98302      100.13474
H         41.21102       74.30479      101.80420
H         39.71159       74.10834      101.02456
N         37.75146       80.82174       95.87626
C         37.35361       81.08520       94.48867
C         38.39096       81.94782       93.75156
O         39.23009       82.52953       94.42151
C         35.90556       81.64210       94.41629
C         35.58544       83.04673       94.86816
O         34.44236       83.44123       94.70409
O         36.46143       83.91649       95.39559
H         37.14909       81.15773       96.64155
H         37.30453       80.09170       93.99618
H         35.23976       80.94601       94.97004
H         35.57289       81.61273       93.36807
N         38.46294       82.09420       92.39133
C         37.66978       81.39529       91.39151
C         37.99521       79.91815       91.31608
O         38.85124       79.43972       92.04745
H         39.17612       82.74459       92.02417
H         37.90945       81.81879       90.39190
H         36.59328       81.56502       91.54890
N         37.33304       79.13431       90.41764
C         37.55283       77.69833       90.27004
C         37.92902       77.35226       88.84317
O         37.39806       77.94856       87.91585
C         36.26856       76.94494       90.64194
C         36.46975       75.45290       90.57942
O         35.81069       74.77500       89.80771
O         37.38871       74.86066       91.36704
H         36.61203       79.57578       89.82546
H         38.35613       77.34980       90.95752
H         35.45111       77.24873       89.95076
H         35.97224       77.21261       91.67759
N         38.82031       76.34986       88.60315
C         39.21957       75.93268       87.27366
C         40.62820       76.37934       87.07292
O         41.51626       75.56519       86.87312
H         39.26282       75.86887       89.40100
H         38.60371       76.41002       86.48042
H         39.10559       74.83114       87.17496
N         40.87671       77.71542       87.10893
C         42.19590       78.30557       86.95366
C         42.08762       79.77998       86.58345
O         41.00838       80.35303       86.55932
C         43.05351       78.12197       88.24172
C         42.37362       78.72575       89.48049
O         43.30354       76.76024       88.46902
H         40.06285       78.33629       87.22077
H         42.69536       77.82454       86.08332
H         44.02863       78.63836       88.08590
H         44.11569       76.70405       89.03860
H         42.17042       79.80621       89.33699
H         41.41342       78.20888       89.69171
H         43.03522       78.61304       90.36540
N         43.21921       80.43866       86.23494
C         43.26172       81.83166       85.81688
C         43.65841       81.88564       84.34909
O         42.97744       82.56041       83.58729
C         44.13870       82.67240       86.79490
C         45.61018       82.18586       86.87891
C         43.46061       82.66998       88.18314
C         46.47610       82.99795       87.84519
H         44.09630       79.90430       86.24157
H         42.24892       82.29357       85.86679
H         44.13613       83.72439       86.43130
H         46.06891       82.26537       85.87195
H         45.65750       81.12841       87.21126
H         43.96296       83.36199       88.88719
H         42.40804       83.01773       88.10201
H         43.46405       81.65107       88.62157
H         46.46815       84.07289       87.57001
H         46.12835       82.87915       88.89249
H         47.51997       82.62213       87.80696
N         44.66599       81.10770       83.85749
C         45.00110       81.00789       82.44408
C         46.44237       81.40679       82.25506
O         47.31834       80.88648       82.93426
C         44.75750       79.57989       81.91072
C         43.26620       79.22410       81.95246
O         45.19385       79.51414       80.57522
H         45.20725       80.51242       84.50029
H         44.35998       81.68089       81.83111
H         45.33726       78.86011       82.53518
H         45.40559       78.56367       80.38286
H         42.68422       79.93910       81.32935
H         43.11017       78.20337       81.54382
H         42.87806       79.25329       82.99139
N         46.74739       82.32944       81.31030
C         48.07890       82.85381       81.07088
C         48.01568       84.35763       81.24461
O         48.75057       84.88816       82.06490
C         48.58355       82.40691       79.67850
C         50.01309       82.88363       79.41309
O         47.74584       82.86938       78.65040
H         45.97858       82.68071       80.72077
H         48.80231       82.44171       81.81179
H         48.61994       81.29015       79.66588
H         47.05690       82.17032       78.49877
H         50.35958       82.50109       78.42988
H         50.06430       83.99202       79.39989
H         50.69886       82.50110       80.19946
N         47.10308       85.09720       80.54607
C         46.92246       86.52932       80.72369
C         45.56088       86.80518       81.33872
O         44.74040       85.90235       81.43895
C         47.06234       87.23006       79.35507
C         48.47483       87.03362       78.77646
C         48.68357       87.68163       77.39874
C         47.90035       86.98430       76.27255
N         48.22436       87.57562       74.97342
H         46.47019       84.62958       79.88163
H         47.67880       86.93067       81.43232
H         46.86899       88.31912       79.46277
H         46.29985       86.80814       78.66457
H         48.71918       85.95289       78.69439
H         49.19290       87.49690       79.48689
H         49.76525       87.59579       77.15719
H         48.42216       88.76118       77.44292
H         46.80667       87.06778       76.44690
H         48.17081       85.90450       76.25209
H         47.95354       88.58556       74.95938
H         49.24881       87.48373       74.78108
H         47.69785       87.07169       74.22353
N         45.27482       88.05005       81.81579
C         43.99213       88.40031       82.41980
C         43.66172       87.49735       83.61290
O         42.63396       86.83827       83.53882
C         43.92320       89.89985       82.79484
C         44.05161       90.82354       81.57294
C         43.96775       92.26396       81.99143
O         44.90406       93.01959       81.78452
O         42.85816       92.73004       82.59609
H         46.00952       88.76927       81.74887
H         43.19670       88.23928       81.65596
H         44.72246       90.17027       83.50409
H         42.94025       90.09515       83.27870
H         43.23700       90.61033       80.84874
H         45.02392       90.65487       81.06378
N         44.43582       87.34870       84.73018
C         45.69173       88.01936       84.98592
H         46.42183       87.80635       84.17979
H         45.54265       89.10494       85.11600
H         46.11793       87.65049       85.94349
H         44.11466       86.68298       85.45129
Ca        38.30482       83.79572       96.62154
O         41.71680       82.84153       96.25069
H         41.54957       81.86579       96.27027
H         42.02073       83.05989       97.16736

Ca 1.0



