%chk=apoCaM-CA-Ng.loop2.water3.frame269.chk
%nprocshared=20
%mem=10GB
%nosave
#b3lyp/svp scf=(tight,noincore,xqc) Test 
#IOP(5/87=12) Density=Current Pop=(MK,readradii) iop(6/33=2) iop(6/42=6)

apoCaM-CA-Ng.loop2.water3.frame269 

   -2  1 
C         17.38194       37.20554       13.91909
C         16.03280       37.56472       14.46579
O         15.06022       36.90249       14.13856
H         18.07399       36.95971       14.75032
H         17.31159       36.33326       13.23427
H         17.78672       38.06875       13.34846
N         15.90346       38.61566       15.32104
C         14.61595       39.08268       15.82452
C         13.80861       39.66574       14.67734
O         14.28572       40.59242       14.03485
C         14.84044       40.15118       16.91592
C         13.54609       40.67924       17.47180
O         13.28886       41.87033       17.39824
O         12.66724       39.84364       18.05744
H         16.76227       39.10835       15.61347
H         14.07628       38.23211       16.29862
H         15.43780       40.99347       16.50104
H         15.41860       39.69701       17.74994
N         12.56851       39.18444       14.36898
C         11.77542       39.74203       13.27548
C         12.40909       39.49561       11.91415
O         11.97775       40.11673       10.95285
C         10.36147       39.15033       13.27366
H         12.17135       38.42742       14.94672
H         11.69244       40.83910       13.44504
H          9.74744       39.60957       12.46916
H         10.40382       38.05170       13.10690
H          9.86437       39.34622       14.24695
N         13.39420       38.56374       11.74627
C         14.03247       38.24730       10.47794
C         12.97915       37.80470        9.47818
O         12.83398       38.42102        8.43056
C         14.88792       39.44397       10.00244
C         15.73775       39.13553        8.79763
O         16.44669       40.01067        8.32889
O         15.74114       37.90945        8.23571
H         13.69053       38.00511       12.55094
H         14.73005       37.39563       10.64993
H         15.57524       39.73884       10.82550
H         14.23400       40.31014        9.76888
N         12.17854       36.74169        9.76964
C         11.09725       36.30714        8.90236
C         11.25367       34.88884        8.40640
O         10.37042       34.45659        7.67968
H         12.31653       36.24209       10.66244
H         11.00369       36.96324        8.01185
H         10.14536       36.37974        9.47226
N         12.30644       34.08969        8.75935
C         12.41483       32.69814        8.32739
C         12.18772       31.79273        9.52707
O         12.11249       32.29066       10.64307
C         13.79613       32.46899        7.66808
C         13.91998       31.11336        7.01067
N         14.83045       30.20472        7.43195
O         13.18076       30.83272        6.07960
H         13.03249       34.44695        9.39757
H         11.61780       32.47133        7.58699
H         14.58627       32.61348        8.43713
H         13.95802       33.23299        6.87683
H         15.45970       30.40511        8.21390
H         14.90204       29.28185        6.98009
N         12.01905       30.44969        9.36786
C         11.77879       29.54986       10.48122
C         12.84788       28.49763       10.52015
O         12.93441       27.71830        9.58135
H         12.03539       30.04392        8.42171
H         10.78996       29.05928       10.35503
H         11.75373       30.09661       11.44678
N         13.71350       28.42601       11.57312
C         14.75280       27.40493       11.67204
C         16.15113       27.98310       11.48117
O         17.07241       27.20130       11.28761
C         14.61564       26.61425       13.00066
C         14.92739       27.44624       14.26020
O         13.33345       26.04268       13.09816
H         13.63279       29.12752       12.32345
H         14.62255       26.67829       10.84070
H         15.34996       25.78030       12.98399
H         12.68962       26.76751       13.31839
H         15.96508       27.82422       14.22964
H         14.24174       28.31150       14.36627
H         14.82607       26.80977       15.16433
N         16.39579       29.32561       11.53079
C         17.70688       29.92860       11.27637
C         17.56620       31.10466       10.32337
O         16.44795       31.49139       10.01717
C         18.39948       30.34163       12.60494
C         17.47042       31.22889       13.47496
C         18.87063       29.07900       13.34864
C         18.13252       31.75000       14.74791
H         15.62579       29.96268       11.77853
H         18.36396       29.19975       10.75094
H         19.31925       30.91462       12.35767
H         16.56190       30.66084       13.77158
H         17.15207       32.11052       12.87797
H         19.53936       28.48167       12.69143
H         19.45793       29.33507       14.25156
H         18.01806       28.44245       13.64432
H         17.41539       32.40178       15.28999
H         18.40658       30.91834       15.42798
H         19.03664       32.34183       14.49557
N         18.66723       31.72407        9.80397
C         18.57178       32.77296        8.79379
C         19.38498       32.35992        7.56766
O         20.15934       33.15222        7.05464
C         19.03254       34.10682        9.42298
C         18.81104       35.32182        8.56261
O         18.29010       35.23907        7.46104
O         19.17276       36.52870        9.03215
H         19.60699       31.42094       10.10391
H         17.51404       32.89360        8.47359
H         20.10644       34.03600        9.69287
H         18.45856       34.27046       10.36052
N         19.29571       31.08604        7.08557
C         20.09601       30.57022        5.97181
C         21.59056       30.80220        6.21904
O         22.04328       30.46922        7.30686
C         19.87079       29.04158        5.84386
C         20.68722       28.44564        4.71949
C         20.26867       28.57183        3.38464
C         21.89560       27.78265        5.00048
C         21.04878       28.04514        2.34926
C         22.67768       27.26941        3.96263
C         22.25425       27.39894        2.63786
H         18.66100       30.43355        7.57192
H         19.76029       31.06714        5.04085
H         18.79763       28.78886        5.70007
H         20.18011       28.57736        6.80734
H         19.34153       29.07846        3.14773
H         22.24511       27.68527        6.02089
H         20.72287       28.14376        1.32209
H         23.61551       26.77720        4.18590
H         22.86249       27.00182        1.83554
N         22.44577       31.29748        5.26134
C         23.88982       31.38006        5.46280
C         24.31203       32.44216        6.45992
O         25.47340       32.47665        6.84089
C         24.43715       31.74532        4.07475
C         23.38706       31.15537        3.15239
C         22.11041       31.55997        3.87723
H         24.23247       30.36520        5.76741
H         24.37768       32.85030        3.93029
H         25.48490       31.42632        3.89021
H         23.44562       31.50422        2.09956
H         23.47674       30.04670        3.17669
H         21.94299       32.65429        3.75738
H         21.24479       31.00497        3.47933
N         23.43660       33.41622        6.82749
C         23.78089       34.54260        7.67911
C         24.03242       34.06764        9.09245
O         25.10515       34.32352        9.62105
C         22.65470       35.60287        7.64735
C         22.45243       36.16312        6.22350
C         21.38624       37.21424        6.19275
O         20.39023       37.05997        5.50307
O         21.53715       38.34673        6.90460
H         22.49326       33.39193        6.42752
H         24.69469       35.04170        7.28307
H         22.93250       36.44089        8.32374
H         21.70276       35.16231        8.01209
H         22.16562       35.35258        5.52087
H         23.39974       36.61355        5.85829
N         23.07993       33.35742        9.75997
C         23.23750       32.88458       11.12016
H         24.20724       33.19060       11.56604
H         22.41948       33.29748       11.74703
H         23.17639       31.77646       11.13459
H         22.19855       33.12717        9.27921
Ca        18.76493       38.35250        7.77742
O         18.93156       40.90932        6.25197
H         18.91648       41.54837        7.00820
H         18.21013       41.21892        5.64885
O         16.83371       38.34317        5.36676
H         16.18284       39.07459        5.21905
H         16.46886       37.57701        4.85691
O         20.63510       39.50273        9.83303
H         20.09051       40.32742        9.77014
H         20.17850       38.95577       10.52070

Ca 1.0



