%chk=apoCaM-CA-Ng.loop2.water4.frame1309.chk
%nprocshared=20
%mem=10GB
%nosave
#b3lyp/svp scf=(tight,noincore,xqc) Test 
#IOP(5/87=12) Density=Current Pop=(MK,readradii) iop(6/33=2) iop(6/42=6)

apoCaM-CA-Ng.loop2.water4.frame1309 

   -2  1 
C         40.96147       32.38042       90.27730
C         42.36325       32.92412       90.28396
O         43.25541       32.23725       89.80886
H         40.30189       33.05146       89.68666
H         40.93482       31.37157       89.81516
H         40.58270       32.29977       91.31775
N         42.67188       34.15234       90.78755
C         41.70212       35.07491       91.37286
C         41.99524       35.38408       92.83465
O         41.17864       36.05812       93.44757
C         41.58121       36.32422       90.48044
C         42.84376       37.10869       90.26724
O         42.84330       37.98603       89.42442
O         43.97432       36.85145       90.95005
H         43.65656       34.44907       90.73023
H         40.69232       34.62047       91.38020
H         40.79710       37.01025       90.86880
H         41.25209       35.96649       89.48053
N         43.10295       34.90311       93.47620
C         43.33261       35.06476       94.90698
C         44.49282       35.99841       95.20872
O         44.76224       36.21341       96.38282
C         43.56657       33.67794       95.51978
H         43.81356       34.37386       92.95159
H         42.44135       35.50955       95.40022
H         43.71083       33.74702       96.61851
H         42.68854       33.02546       95.32339
H         44.46582       33.20159       95.07086
N         45.20430       36.61495       94.21953
C         46.28227       37.55776       94.47094
C         45.92118       39.00020       93.96200
O         45.36020       39.11798       92.68218
C         47.67350       36.94037       94.09066
C         47.75830       35.87317       93.00221
O         47.51757       36.13986       91.70775
O         48.09777       34.74002       93.30732
H         44.98496       36.42235       93.23461
H         46.38424       37.74925       95.56294
H         48.00321       36.40060       95.00864
H         48.42820       37.73878       93.93385
N         47.01920       39.95062       94.18089
C         46.65448       41.35437       93.92590
C         47.14201       41.80160       92.57005
O         48.28855       41.52932       92.24463
H         47.26656       39.88015       95.19590
H         47.20950       41.98617       94.65428
H         45.57139       41.55711       94.09113
N         46.36020       42.57535       91.76307
C         46.80326       43.08182       90.46175
C         46.98511       44.58378       90.52441
O         46.76617       45.17097       91.57685
C         45.74079       42.77267       89.38999
C         45.29039       41.34757       89.43201
N         43.99649       41.06760       89.70180
O         46.08843       40.44349       89.23840
H         45.42660       42.85824       92.10065
H         47.76954       42.61677       90.16585
H         46.12531       43.00341       88.37379
H         44.85837       43.42604       89.57160
H         43.30873       41.81710       89.86882
H         43.67891       40.09953       89.75555
N         47.32314       45.29124       89.40838
C         47.33413       46.74024       89.41323
C         48.46894       47.30776       90.23669
O         49.33909       46.55517       90.65216
H         47.48890       44.80327       88.51541
H         46.34601       47.06780       89.79275
H         47.45661       47.12122       88.37499
N         48.58582       48.64432       90.47850
C         47.57568       49.64689       90.13956
C         47.90821       50.38994       88.85645
O         47.13263       51.25785       88.48085
C         47.37966       50.61678       91.33253
C         46.86461       49.88037       92.57786
O         48.59425       51.26206       91.62188
H         49.44290       48.96835       90.95458
H         46.59311       49.17730       89.94392
H         46.61556       51.37509       91.04332
H         48.38451       52.01682       92.23156
H         47.58797       49.10899       92.91640
H         46.70930       50.60369       93.40680
H         45.89119       49.39200       92.35841
N         49.00471       50.08041       88.10454
C         49.33346       50.74029       86.84518
C         49.34783       49.69191       85.73182
O         50.05461       48.70609       85.88874
C         50.71354       51.44737       86.97153
C         50.63823       52.53471       88.07831
C         51.13374       52.05962       85.61835
C         51.95466       53.27232       88.32259
H         49.64625       49.33964       88.42224
H         48.59396       51.52912       86.62313
H         51.47901       50.69108       87.25706
H         50.35046       52.05767       89.03993
H         49.85678       53.28271       87.81847
H         50.41193       52.83964       85.29780
H         52.14769       52.50095       85.67574
H         51.18828       51.28022       84.83089
H         52.75466       52.55360       88.59709
H         52.26377       53.85381       87.43084
H         51.81954       53.99413       89.15552
N         48.65371       49.81235       84.55615
C         47.83069       50.95464       84.16835
C         47.81347       51.14168       82.65784
O         47.51933       50.20047       81.93325
C         46.40292       50.84375       84.75313
C         45.61333       49.64305       84.29675
O         45.19939       48.73305       85.19793
O         45.29207       49.51230       83.12680
H         48.77274       49.05552       83.86449
H         48.27085       51.88692       84.57217
H         45.83143       51.76082       84.48842
H         46.47855       50.80708       85.85871
N         48.06856       52.36982       82.12009
C         47.92933       52.67033       80.70212
C         49.21285       53.28662       80.16759
O         49.66785       54.25211       80.77132
C         46.77857       53.68402       80.52057
C         46.41020       53.82123       79.06367
C         45.76857       52.75424       78.40869
C         46.70144       54.99239       78.34593
C         45.42728       52.85583       77.05870
C         46.36695       55.08561       76.99008
C         45.72962       54.01925       76.34812
H         48.29411       53.15449       82.75253
H         47.65222       51.75679       80.14392
H         47.08243       54.66126       80.95896
H         45.86862       53.35269       81.06736
H         45.52916       51.84510       78.94702
H         47.20012       55.82352       78.82819
H         44.93061       52.03075       76.56442
H         46.60302       55.98396       76.43512
H         45.46938       54.09337       75.30032
N         49.83378       52.87013       79.02145
C         49.36905       51.82556       78.11630
C         49.43917       50.44358       78.71539
O         48.47827       49.69191       78.61706
C         50.32906       51.92333       76.92008
C         50.70470       53.39123       76.93985
C         50.93916       53.59473       78.42853
H         48.34849       52.08119       77.76119
H         51.26912       51.36222       77.12726
H         49.90419       51.54517       75.96545
H         51.56958       53.65734       76.29670
H         49.81773       53.99236       76.63309
H         51.89060       53.10097       78.73132
H         50.97327       54.67417       78.69065
N         50.57272       50.04435       79.35341
C         50.76702       48.69665       79.85868
C         51.06303       47.79086       78.66557
O         52.05181       48.06331       77.99738
C         51.96171       48.66002       80.83951
C         51.71186       49.53732       82.07968
C         52.89141       49.50537       83.00705
O         53.48720       50.53594       83.27812
O         53.29320       48.34158       83.55241
H         51.33540       50.72981       79.46895
H         49.88176       48.40554       80.45118
H         52.88357       49.01032       80.32315
H         52.12227       47.61062       81.17237
H         50.81873       49.16867       82.62466
H         51.52143       50.58914       81.77484
N         50.31022       46.71887       78.27851
C         49.09903       46.22998       78.90390
H         48.27469       46.25902       78.16075
H         49.25525       45.17650       79.21620
H         48.77638       46.80184       79.78591
H         50.62408       46.19529       77.44585
Ca        46.81587       38.16977       91.31588
O         48.28784       36.49713       88.56951
H         48.70368       35.76914       89.09594
H         48.99179       36.77825       87.93268
O         49.29266       39.08684       89.86123
H         49.70693       38.54428       90.57863
H         48.84021       39.82564       90.33927
O         45.46933       35.39606       88.81097
H         45.76246       34.67814       89.42652
H         44.63955       35.04905       88.39692
O         45.77884       38.09906       87.41049
H         45.61649       38.91200       86.86926
H         46.24171       37.47851       86.79337

Ca 1.0



