%chk=apoCaM-CA-Ng.loop2.water3.frame337.chk
%nprocshared=20
%mem=10GB
%nosave
#b3lyp/svp scf=(tight,noincore,xqc) Test 
#IOP(5/87=12) Density=Current Pop=(MK,readradii) iop(6/33=2) iop(6/42=6)

apoCaM-CA-Ng.loop2.water3.frame337 

   -2  1 
C         67.73742       97.94183       54.35498
C         67.88306       99.38445       54.75049
O         67.97407       99.66191       55.93757
H         68.60345       97.36161       54.73628
H         66.80260       97.52625       54.78785
H         67.69397       97.82513       53.25148
N         67.87653      100.36426       53.80263
C         67.97890      101.78705       54.10526
C         66.61707      102.40377       53.88475
O         66.06585      102.27394       52.79953
C         69.05645      102.43572       53.21603
C         69.27042      103.90524       53.48843
O         68.57762      104.55320       54.44619
O         70.09385      104.52085       52.83152
H         67.73614      100.09294       52.81675
H         68.27679      101.93687       55.16715
H         68.77295      102.30941       52.14825
H         70.02223      101.91246       53.38558
N         65.98699      103.04576       54.90891
C         64.59814      103.47510       54.82945
C         63.73189      102.25079       54.62063
O         62.85614      102.27920       53.76862
C         64.18728      104.21948       56.10206
H         66.48970      103.16924       55.80201
H         64.46538      104.18770       53.98464
H         64.29384      103.57735       57.00098
H         64.82708      105.12091       56.22311
H         63.13194      104.55767       56.01702
N         64.01617      101.09663       55.29784
C         63.38179       99.81376       55.04170
C         61.92321       99.85068       55.43793
O         61.05008       99.65058       54.60435
C         63.64273       99.36294       53.58335
C         63.14290       97.96912       53.34614
O         63.59787       96.95843       54.10877
O         62.32216       97.74782       52.47016
H         64.77997      101.10145       55.99168
H         63.87025       99.05428       55.69523
H         64.73893       99.36606       53.39800
H         63.16867      100.05310       52.85500
N         61.60202      100.05634       56.74431
C         60.24090      100.02871       57.24536
C         60.00382       98.86390       58.18241
O         58.88775       98.75334       58.66979
H         62.36274      100.20267       57.42680
H         59.50707       99.93514       56.41685
H         60.03680      100.98373       57.77412
N         60.97759       97.94714       58.47500
C         60.75567       96.79887       59.34523
C         61.62948       96.90969       60.58318
O         62.58233       97.67833       60.58700
C         61.03789       95.51556       58.53217
C         60.76273       94.23825       59.28188
N         61.74295       93.32617       59.47315
O         59.63765       94.01407       59.70228
H         61.91876       98.04445       58.06681
H         59.69875       96.78411       59.68879
H         62.09497       95.53399       58.18438
H         60.38945       95.51866       57.62901
H         62.69335       93.48431       59.11807
H         61.55064       92.44900       59.97087
N         61.32178       96.18989       61.69823
C         62.07730       96.25490       62.93662
C         62.64531       94.89535       63.22865
O         61.88151       93.94626       63.33998
H         60.49701       95.57166       61.68088
H         61.40428       96.57061       63.76226
H         62.89704       97.00274       62.87386
N         63.99246       94.72496       63.33373
C         64.62751       93.42342       63.50690
C         65.50602       93.07427       62.30483
O         66.05400       91.98166       62.28747
C         65.42099       93.37953       64.83891
C         66.62962       94.32878       64.88562
O         64.56317       93.62149       65.92735
H         64.59826       95.55596       63.25710
H         63.85240       92.62796       63.56692
H         65.82226       92.35013       64.96208
H         64.30837       94.58141       65.90983
H         67.15157       94.21889       65.85920
H         67.35005       94.07184       64.08423
H         66.32148       95.38869       64.77394
N         65.67102       93.94071       61.25839
C         66.46611       93.66156       60.07034
C         65.53638       93.69729       58.87573
O         64.85035       94.69152       58.68009
C         67.60558       94.71275       59.92436
C         68.56543       94.72294       61.14355
C         68.39531       94.51683       58.61445
C         69.33373       93.41672       61.38430
H         65.20369       94.85686       61.27123
H         66.93184       92.65527       60.12321
H         67.14238       95.72400       59.87479
H         67.98577       94.96564       62.05640
H         69.30903       95.53762       61.00487
H         68.85186       93.50709       58.56323
H         67.73170       94.63658       57.73285
H         69.19503       95.28308       58.53092
H         69.99107       93.53677       62.27068
H         68.64641       92.57214       61.58836
H         69.97862       93.16420       60.51813
N         65.50178       92.64984       58.00780
C         64.63605       92.59852       56.83910
C         63.90479       91.24774       56.75961
O         63.30751       90.95751       55.73237
C         65.50838       92.90723       55.60557
C         64.68792       93.04018       54.32193
O         63.70380       94.02805       54.42653
O         65.51424       93.40348       53.25314
H         66.17154       91.87588       58.14158
H         63.87044       93.40363       56.87878
H         66.28184       92.11879       55.47668
H         66.02748       93.87789       55.77551
N         63.85987       90.39311       57.82862
C         63.18882       89.09315       57.80150
C         63.94776       88.10666       56.92684
O         65.14175       87.95121       57.13238
C         63.07523       88.50404       59.22453
C         62.07007       89.26158       60.05960
C         62.45703       89.94254       61.22524
C         60.71415       89.27051       59.67806
C         61.50218       90.62382       61.99024
C         59.76656       89.95260       60.44247
C         60.15928       90.62969       61.59821
H         64.28419       90.68666       58.72010
H         62.16041       89.23302       57.41879
H         64.08186       88.48638       59.69876
H         62.71278       87.45351       59.16934
H         63.49252       89.94906       61.54064
H         60.38629       88.74281       58.79074
H         61.80222       91.15019       62.88565
H         58.72751       89.95216       60.13795
H         59.42217       91.15828       62.18814
N         63.31988       87.35718       55.96611
C         63.98049       86.41521       55.06931
C         65.12207       87.02287       54.28076
O         66.15553       86.38476       54.13887
C         62.86050       86.01330       54.09777
C         61.65306       86.03834       54.99769
C         61.88216       87.33185       55.77134
H         64.32327       85.53029       55.65230
H         62.69825       86.81615       53.34124
H         63.04052       85.05645       53.56257
H         60.66794       85.97082       54.49030
H         61.75042       85.17971       55.70322
H         61.58022       88.23644       55.19989
H         61.31359       87.25034       56.72364
N         64.98887       88.26257       53.72901
C         65.99598       88.88493       52.86991
C         67.34412       89.10332       53.56064
O         68.28001       89.48456       52.87073
C         65.49925       90.25800       52.37065
C         64.19208       90.22190       51.55888
C         63.76176       91.61384       51.18668
O         64.47862       92.31720       50.49252
O         62.57971       92.09356       51.62099
H         64.11144       88.76777       53.91685
H         66.15909       88.21650       51.99618
H         66.28406       90.73355       51.74145
H         65.34556       90.87392       53.27060
H         63.37249       89.76314       52.14717
H         64.33730       89.62343       50.63588
N         67.52509       88.91086       54.89894
C         68.79153       89.10244       55.57602
H         69.60161       89.41700       54.88589
H         68.67400       89.87934       56.36034
H         69.09413       88.14946       56.05909
H         66.73793       88.62816       55.48755
Ca        64.02214       94.84055       52.32639
O         62.17933       95.35666       49.68303
H         61.88533       95.24953       48.74364
H         61.38741       95.72481       50.14940
O         66.09593       96.27922       50.91329
H         65.86194       97.19874       50.63100
H         67.07866       96.29261       51.02970
O         60.84257       95.07925       52.88246
H         60.26795       95.83996       52.61462
H         60.21226       94.32838       53.01889

Ca 1.0



