%chk=apoCaM-CA-Ng.loop3.water4.frame212.chk
%nprocshared=20
%mem=10GB
%nosave
#b3lyp/svp scf=(tight,noincore,xqc) Test 
#IOP(5/87=12) Density=Current Pop=(MK,readradii) iop(6/33=2) iop(6/42=6)

apoCaM-CA-Ng.loop3.water4.frame212 

   0  1 
C         45.36218       50.80304       66.09767
C         46.71618       51.38048       65.80379
O         47.20340       52.17560       66.58986
H         44.65126       51.07116       65.28893
H         45.43964       49.69751       66.16523
H         44.96638       51.18747       67.06329
N         47.39055       51.00824       64.67718
C         48.73868       51.45873       64.32345
C         48.83632       52.95809       64.03361
O         49.95066       53.42621       63.84400
C         49.77327       51.01883       65.39248
C         49.82117       49.52561       65.61449
O         50.68997       49.02095       66.50947
O         49.10470       48.76288       64.98442
H         46.93955       50.32731       64.04766
H         49.04225       50.95177       63.38105
H         49.57292       51.52554       66.35461
H         50.79033       51.32592       65.06555
N         47.73764       53.76601       63.92640
C         47.82090       55.19621       63.61801
C         47.24896       56.06288       64.72608
O         47.21153       57.27436       64.55700
C         47.08300       55.49612       62.29809
C         47.75848       54.77632       61.12958
C         47.25249       55.27400       59.77313
C         48.11717       54.67231       58.65772
N         47.68904       55.13314       57.33967
H         46.79568       53.36253       64.03395
H         48.87828       55.51810       63.49213
H         47.15430       56.59084       62.11125
H         46.00497       55.22478       62.36212
H         47.60874       53.67708       61.21699
H         48.84653       54.99460       61.18240
H         47.35687       56.38168       59.72917
H         46.18016       55.01267       59.63835
H         48.07270       53.56140       58.69550
H         49.17314       54.98596       58.82358
H         47.63580       56.17751       57.31636
H         48.38910       54.81687       56.63005
H         46.75650       54.72244       57.10686
N         46.81750       55.52473       65.89836
C         46.17794       56.28061       66.96522
C         46.97156       57.52855       67.34816
O         48.17566       57.43996       67.53349
C         45.98604       55.37038       68.18955
C         45.00628       55.99897       69.12894
O         45.41523       56.53384       70.28116
O         43.82723       56.06588       68.82637
H         46.91728       54.51457       66.03732
H         45.17558       56.58517       66.59367
H         46.97861       55.19491       68.66525
H         45.57059       54.37732       67.90447
N         46.34500       58.73953       67.42267
C         47.02929       60.00848       67.63659
C         47.68865       60.20888       68.98827
O         48.41395       61.18661       69.10919
H         45.33475       58.77405       67.23374
H         46.30865       60.84354       67.49671
H         47.81064       60.10291       66.85376
N         47.48363       59.38049       70.05226
C         48.21946       59.51366       71.31175
C         48.89830       58.18914       71.67811
O         49.28791       58.00103       72.82147
C         47.32258       60.15007       72.40099
C         46.29710       59.25192       73.09494
N         46.85363       58.64164       74.28750
O         45.81737       58.24981       72.25776
H         46.79375       58.62408       69.96741
H         49.03130       60.26519       71.19569
H         46.78732       61.00694       71.93797
H         47.96012       60.60255       73.19442
H         47.16605       59.39639       74.93983
H         46.05132       58.18486       74.75530
N         49.14675       57.25607       70.70761
C         49.85845       56.00450       70.91532
C         49.10510       54.97364       71.73947
O         49.73204       54.02910       72.19409
H         48.89204       57.47166       69.74168
H         50.83998       56.23139       71.37779
H         50.06297       55.53684       69.92415
N         47.75314       55.02636       71.88206
C         46.95013       54.05297       72.62309
C         45.94894       54.75170       73.50129
O         45.22354       55.61288       73.02263
C         46.15539       53.14187       71.66512
C         47.02872       52.03953       71.14211
C         47.39694       50.99048       72.00536
C         47.47705       52.03147       69.81889
C         48.20633       49.95114       71.54932
C         48.30176       50.99599       69.36966
C         48.66766       49.95310       70.23261
O         49.46101       48.95054       69.80967
H         47.25939       55.77385       71.38973
H         47.58425       53.40212       73.26269
H         45.68459       53.74722       70.86156
H         45.32581       52.62800       72.20582
H         47.04587       50.97292       73.03078
H         47.20337       52.83166       69.14749
H         48.47707       49.14604       72.22065
H         48.65874       51.00154       68.35429
H         49.80982       48.91998       68.90941
N         45.76714       54.32777       74.78188
C         44.67041       54.81661       75.59725
C         45.13588       56.06282       76.29872
O         44.53200       57.09599       76.10077
C         44.14807       53.75618       76.60894
C         43.93736       52.34457       75.99368
C         42.84076       54.25794       77.25986
C         42.91327       52.25373       74.86220
H         46.34884       53.55531       75.13572
H         43.80654       55.04744       74.93028
H         44.91157       53.62191       77.40513
H         43.62230       51.65158       76.80331
H         44.90329       51.95906       75.60923
H         42.46239       53.51930       77.99552
H         42.99185       55.21901       77.78448
H         42.05531       54.43388       76.49373
H         41.89833       52.52350       75.21727
H         43.20105       52.90524       74.01417
H         42.87810       51.20472       74.49725
N         46.23780       56.05226       77.10384
C         46.75349       57.26173       77.74573
C         45.80576       57.84005       78.80184
O         45.98071       58.99435       79.16704
C         48.17601       57.02302       78.27569
O         48.23918       55.93007       79.15226
H         46.75493       55.16621       77.20765
H         46.85186       58.03618       76.95697
H         48.59651       57.93610       78.74929
H         48.81931       56.78567       77.39866
H         47.63693       56.12727       79.91247
N         44.72321       57.13378       79.24548
C         43.58812       57.68892       79.98297
C         43.11159       58.98454       79.34440
O         42.92239       59.98188       80.02772
C         43.84280       57.80517       81.48862
H         44.61828       56.16334       78.92942
H         42.75944       56.95388       79.87633
H         44.62045       58.56019       81.71908
H         42.89372       58.09783       81.99414
H         44.14656       56.81825       81.89707
N         42.93019       59.02301       77.99777
C         42.47244       60.18357       77.25613
C         41.23779       59.81253       76.47244
O         41.00275       58.63643       76.22714
C         43.56295       60.67673       76.29110
H         43.11765       58.16891       77.47094
H         42.22865       61.01132       77.95564
H         43.83061       59.89473       75.54919
H         43.21331       61.57435       75.73576
H         44.48234       60.95203       76.84942
N         40.38327       60.78548       76.05868
C         39.20058       60.55529       75.23627
C         38.14865       59.64579       75.88521
O         37.13921       59.40027       75.23910
C         39.60600       60.02439       73.83790
C         40.73506       60.85975       73.20223
C         41.00501       60.43502       71.78933
O         40.81093       61.22121       70.87686
O         41.47348       59.20874       71.49801
H         40.59882       61.76204       76.31047
H         38.71988       61.54419       75.06844
H         38.70972       60.06310       73.17958
H         39.91612       58.96737       73.89996
H         41.67457       60.76727       73.78863
H         40.42767       61.92773       73.19853
N         38.29939       59.10436       77.13393
C         37.34232       58.19757       77.73791
H         36.44454       58.03747       77.10600
H         37.83106       57.21343       77.90436
H         37.01727       58.60034       78.71985
H         39.12494       59.31658       77.70597
Ca        43.63643       58.69252       71.85640
O         43.99927       59.81038       69.33706
H         43.57225       59.53501       68.48931
H         43.30125       60.33923       69.79706
O         42.69748       54.68189       71.73816
H         43.21254       53.83763       71.76448
H         41.82615       54.42375       71.34667
O         40.97711       56.86089       70.03102
H         40.64879       57.71560       69.65444
H         40.19616       56.25573       69.98001
O         42.54146       57.28302       73.98810
H         43.11676       57.97781       74.39014
H         41.66015       57.71888       73.94055

Ca 1.0



