%chk=apoCaM-CA-Ng.loop1.water3.frame1364.chk
%nprocshared=20
%mem=10GB
%nosave
#b3lyp/svp scf=(tight,noincore,xqc) Test 
#IOP(5/87=12) Density=Current Pop=(MK,readradii) iop(6/33=2) iop(6/42=6)

apoCaM-CA-Ng.loop1.water3.frame1364 

   0  1 
C         -7.34281       45.23021       63.27047
C         -8.70533       45.85358       63.30039
O         -9.20488       46.23145       62.25247
H         -6.64493       45.83537       63.88632
H         -7.39397       44.19873       63.67565
H         -6.95226       45.18729       62.23033
N         -9.36835       45.99133       64.48340
C        -10.68245       46.61773       64.60794
C        -10.60504       47.83213       65.52346
O        -11.58031       48.16613       66.18300
C        -11.69808       45.57999       65.11468
C        -11.79157       44.40800       64.17699
O        -11.48209       43.17167       64.61107
O        -12.14477       44.57062       63.01937
H         -8.91621       45.64484       65.34374
H        -11.04659       46.97942       63.63335
H        -12.70559       46.04296       65.19530
H        -11.38863       45.22599       66.12194
N         -9.45100       48.54766       65.60125
C         -9.25729       49.70593       66.46706
C        -10.18913       50.84802       66.08286
O        -10.91135       51.29596       66.96192
C         -7.76293       50.11335       66.49967
C         -6.94082       48.96064       67.11349
C         -5.43246       49.19364       67.06777
C         -4.71469       47.98065       67.68305
N         -3.26399       48.11432       67.58950
H         -8.65654       48.24204       65.02079
H         -9.50311       49.41569       67.51461
H         -7.62765       51.01904       67.13081
H         -7.38781       50.34848       65.48403
H         -7.13145       48.01794       66.56079
H         -7.26567       48.81111       68.16706
H         -5.16745       50.11746       67.62561
H         -5.11870       49.30768       66.00671
H         -5.02283       47.05293       67.14876
H         -5.01073       47.87901       68.75142
H         -2.97602       48.16055       66.58503
H         -2.94766       48.97378       68.09310
H         -2.81918       47.27592       68.02895
N        -10.31860       51.36068       64.82289
C         -9.60933       50.90867       63.62978
C        -10.55140       50.12960       62.72193
O        -11.73939       50.04689       63.00518
C         -8.88417       52.09170       62.95977
C         -9.77668       53.27541       62.73672
O        -10.76103       53.18957       62.02330
O         -9.50400       54.43312       63.36890
H        -11.03702       52.09162       64.69249
H         -8.82847       50.18065       63.88239
H         -8.41615       51.77612       62.00526
H         -8.06844       52.42053       63.64050
N        -10.04545       49.39881       61.68783
C        -10.83463       48.41922       60.95103
C        -11.88232       49.00296       60.05954
O        -11.95191       50.20446       59.92193
H         -9.03198       49.43782       61.49982
H        -11.33071       47.73879       61.66214
H        -10.16055       47.81844       60.30428
N        -12.73515       48.17000       59.39893
C        -13.69967       48.61800       58.39190
C        -13.78748       47.58813       57.25561
O        -13.31760       46.47424       57.43686
C        -15.06036       48.93011       59.07717
C        -14.89811       50.18045       59.89676
O        -14.50304       51.29367       59.24573
O        -14.98155       50.15792       61.11326
H        -12.66811       47.16313       59.60988
H        -13.30027       49.53665       57.92198
H        -15.37998       48.06277       59.69588
H        -15.86600       49.13132       58.35203
N        -14.33222       47.85317       56.02652
C        -14.87692       49.12701       55.58837
C        -13.84162       50.22174       55.44085
O        -12.64814       49.97661       55.55440
H        -14.36499       47.08018       55.34299
H        -15.67480       49.44755       56.27750
H        -15.35232       49.00264       54.59161
N        -14.27518       51.49077       55.20747
C        -13.41513       52.66867       55.09651
C        -12.50674       52.78864       56.30107
O        -13.00465       52.76529       57.40305
C        -14.30069       53.93988       54.97675
C        -13.47969       55.23517       54.92468
O        -15.18874       54.00501       56.06558
H        -15.29682       51.62815       55.14798
H        -12.79158       52.58872       54.17901
H        -14.87718       53.84278       54.02667
H        -15.99822       54.48863       55.75565
H        -12.91538       55.38539       55.87112
H        -12.76463       55.21232       54.07699
H        -14.16147       56.10247       54.79842
N        -11.16909       52.98418       56.14547
C        -10.19574       53.16715       57.22117
C        -10.56703       54.39611       58.12943
O        -11.06765       54.07123       59.41576
C         -9.83868       51.83950       57.94694
C         -9.35389       50.78525       56.90957
C         -8.74444       52.05969       59.01720
C         -9.14827       49.38107       57.48245
H        -10.80602       53.05430       55.18204
H         -9.25247       53.43077       56.68824
H        -10.75578       51.47860       58.42627
H         -8.40200       51.12862       56.44606
H        -10.10612       50.68252       56.10128
H         -7.80745       52.43061       58.54886
H         -9.05494       52.79140       59.78470
H         -8.52186       51.12489       59.56661
H         -8.36624       49.35711       58.26666
H        -10.10226       48.99628       57.89502
H         -8.82128       48.69982       56.66845
N         -9.34127       55.18307       58.30931
C         -9.42465       56.31987       59.23733
C        -10.03585       57.57911       58.63667
O        -10.06005       58.56537       59.35594
C         -8.01389       56.56712       59.82916
C         -6.96064       56.90411       58.76974
O         -7.58848       55.41892       60.51728
H         -8.93216       55.48095       57.39368
H        -10.06159       56.06800       60.11273
H         -8.05351       57.42170       60.54412
H         -8.14821       55.35025       61.33360
H         -6.82510       56.05927       58.06168
H         -7.24591       57.81480       58.20451
H         -5.98360       57.08272       59.26631
N        -10.56333       57.64331       57.37166
C        -11.19037       58.85716       56.84478
C        -12.43194       59.15579       57.67852
O        -13.46811       58.56231       57.41744
C        -11.54223       58.67720       55.33845
C        -12.09363       59.95879       54.70408
O        -10.38906       58.28885       54.63533
H        -10.53440       56.81397       56.76358
H        -10.45323       59.68741       56.92559
H        -12.31133       57.87330       55.25796
H        -10.69317       57.77368       53.84139
H        -11.33170       60.76588       54.74543
H        -12.34395       59.76699       53.63778
H        -13.01529       60.29874       55.21944
N        -12.35536       59.97539       58.77254
C        -13.42850       60.18918       59.74494
C        -13.84150       58.89655       60.43767
O        -14.20691       57.93814       59.77499
C        -14.64183       60.90100       59.13096
C        -14.24089       62.28037       58.59261
C        -15.46720       63.06802       58.12153
C        -15.10308       64.44633       57.54396
N        -14.50459       65.33733       58.54182
H        -11.46483       60.45916       58.96028
H        -13.04191       60.87458       60.53342
H        -15.39096       61.04625       59.94197
H        -15.11129       60.29103       58.33102
H        -13.52727       62.15668       57.74874
H        -13.73923       62.84008       59.40974
H        -16.17659       63.20070       58.96830
H        -15.97834       62.48310       57.32659
H        -16.03756       64.91501       57.16490
H        -14.40749       64.32200       56.68488
H        -14.34662       66.27425       58.10591
H        -15.14843       65.45083       59.35826
H        -13.57926       64.97575       58.86348
N        -13.86453       58.81926       61.79774
C        -14.25443       57.59979       62.49672
C        -13.20294       56.51649       62.30858
O        -13.56496       55.47056       61.78973
C        -14.57596       57.85059       63.98758
C        -15.80245       58.76760       64.13362
C        -16.14309       58.99652       65.57637
O        -16.14937       60.12866       66.03248
O        -16.46069       57.95658       66.37108
H        -13.64059       59.66336       62.34575
H        -15.21095       57.22847       62.05929
H        -13.71790       58.28874       64.53202
H        -14.81762       56.87397       64.46381
H        -16.67954       58.29849       63.63595
H        -15.60670       59.74509       63.64301
N        -11.89115       56.63209       62.67113
C        -11.24755       57.78322       63.27144
H        -10.41139       58.11227       62.62001
H        -11.91266       58.64659       63.41041
H        -10.83404       57.49584       64.26132
H        -11.28229       55.82472       62.49029
Ca       -12.83484       52.68226       59.90246
O        -15.88560       53.58783       60.90657
H        -16.31414       54.47319       60.79330
H        -16.64038       52.94966       60.96237
O        -14.26156       55.06873       58.74982
H        -13.42821       55.46653       59.10553
H        -14.58368       55.72442       58.08289
O        -14.14181       52.25359       63.10013
H        -14.47769       51.38422       63.43464
H        -13.36686       52.01781       62.53184

Ca 1.0



