%chk=apoCaM-CA-Ng.loop3.water3.frame875.chk
%nprocshared=20
%mem=10GB
%nosave
#b3lyp/svp scf=(tight,noincore,xqc) Test 
#IOP(5/87=12) Density=Current Pop=(MK,readradii) iop(6/33=2) iop(6/42=6)

apoCaM-CA-Ng.loop3.water3.frame875 

   0  1 
C         38.73258       25.63262       -8.98493
C         39.83794       26.30234       -9.74407
O         39.66170       26.62546      -10.90960
H         37.83349       25.50391       -9.62334
H         39.07101       24.64072       -8.62174
H         38.45757       26.26424       -8.11206
N         41.00811       26.58413       -9.11258
C         42.08354       27.34866       -9.73543
C         42.73177       26.56530      -10.88218
O         42.66505       25.34413      -10.88919
C         43.08847       27.76063       -8.62265
C         44.02099       28.89721       -8.92522
O         44.84733       29.34203       -7.96117
O         44.00120       29.46952       -9.99532
H         41.09100       26.31572       -8.11871
H         41.62287       28.27351      -10.13644
H         43.66457       26.86982       -8.29236
H         42.50116       28.13097       -7.75478
N         43.36790       27.22333      -11.89261
C         44.04404       26.58597      -13.02752
C         45.55484       26.82552      -12.97489
O         46.31025       25.97838      -13.43102
C         43.45518       27.17120      -14.32927
C         44.03069       26.53989      -15.60808
C         43.37818       27.14922      -16.85651
C         43.90888       26.49378      -18.13892
N         43.25669       27.05571      -19.32181
H         43.34401       28.24929      -11.87254
H         43.87130       25.48692      -13.01624
H         43.64225       28.26842      -14.35102
H         42.35555       27.00704      -14.31828
H         43.83705       25.44558      -15.58781
H         45.12773       26.71071      -15.66137
H         43.58620       28.24204      -16.88880
H         42.27826       26.99713      -16.80345
H         43.71257       25.39912      -18.10215
H         45.00807       26.65125      -18.21414
H         43.45330       28.08064      -19.39024
H         43.62805       26.58118      -20.17637
H         42.22378       26.89752      -19.27163
N         46.05406       27.95748      -12.41068
C         47.46122       28.31440      -12.29614
C         47.93877       28.26245      -10.85132
O         49.11461       28.51715      -10.63131
C         47.74220       29.71403      -12.94402
C         46.86662       30.90542      -12.54673
O         47.08258       31.99482      -13.05126
O         45.76459       30.73337      -11.78970
H         45.38380       28.59327      -11.99719
H         48.09195       27.56958      -12.83097
H         47.62037       29.60101      -14.04294
H         48.80797       29.97452      -12.76241
N         47.11567       27.91718       -9.81378
C         47.58117       27.85871       -8.43271
C         48.03269       29.20353       -7.89079
O         48.55144       29.22851       -6.77968
H         46.13929       27.65363       -9.99218
H         48.42946       27.14284       -8.38294
H         46.77129       27.46962       -7.77873
N         47.89841       30.35397       -8.60757
C         48.43370       31.64417       -8.20856
C         47.33566       32.68359       -8.16563
O         46.39216       32.58728       -8.94552
C         49.48298       32.04627       -9.26675
C         50.10810       33.39266       -9.00608
N         49.97691       34.39708       -9.90459
O         50.73991       33.57805       -7.97651
H         47.42640       30.32831       -9.52350
H         48.93076       31.58839       -7.21325
H         48.99448       32.05153      -10.26760
H         50.28833       31.28054       -9.29217
H         49.44904       34.26015      -10.77927
H         50.40235       35.31841       -9.72747
N         47.44911       33.77780       -7.36260
C         46.52588       34.89538       -7.44502
C         45.11028       34.51737       -7.09223
O         44.86799       33.43038       -6.58738
H         48.26039       33.86148       -6.72849
H         46.54340       35.26472       -8.49346
H         46.85317       35.72638       -6.78457
N         44.10536       35.39167       -7.38337
C         42.69534       35.09778       -7.14914
C         42.23599       33.87035       -7.95064
O         43.04426       33.22855       -8.60666
C         41.80904       36.32344       -7.51002
C         42.17585       37.63232       -6.84541
C         42.44036       37.71511       -5.46609
C         42.19640       38.80966       -7.61433
C         42.73068       38.95005       -4.87512
C         42.46489       40.04376       -7.01759
C         42.73500       40.11808       -5.64490
O         42.98958       41.30381       -5.05550
H         44.36066       36.29755       -7.80484
H         42.54999       34.88391       -6.06830
H         40.77280       36.11983       -7.17973
H         41.78566       36.45628       -8.61436
H         42.42719       36.83088       -4.84384
H         41.97440       38.77959       -8.67400
H         42.94053       39.00109       -3.81411
H         42.45377       40.94183       -7.62260
H         42.97916       42.13631       -5.54959
N         40.92112       33.51271       -7.95830
C         40.34214       32.36871       -8.65193
C         40.78495       32.32494      -10.15847
O         41.80629       31.37063      -10.30917
C         40.61663       31.03909       -7.86265
C         39.80565       29.83004       -8.40708
C         40.37860       31.19864       -6.34927
C         38.28514       29.91255       -8.21990
H         40.25037       34.09153       -7.43519
H         39.24594       32.54588       -8.60932
H         41.69673       30.79282       -7.96361
H         40.14857       28.91201       -7.88555
H         40.01525       29.69514       -9.48415
H         40.59958       30.24256       -5.82719
H         41.05931       31.96619       -5.92500
H         39.33554       31.50373       -6.13072
H         37.81733       29.00276       -8.65151
H         38.01744       29.94841       -7.14474
H         37.84816       30.79267       -8.72925
N         39.63972       32.05027      -11.05927
C         39.99738       31.70308      -12.45196
C         38.94960       32.18716      -13.45499
O         39.20114       32.06154      -14.64633
C         40.18482       30.17591      -12.61649
O         38.98234       29.51128      -12.32902
H         38.95472       31.37012      -10.66396
H         40.94472       32.22425      -12.71733
H         40.97923       29.79906      -11.94293
H         40.49354       29.95949      -13.66419
H         39.09336       28.57733      -12.64309
N         37.75704       32.73772      -13.07303
C         36.76873       33.22979      -14.04136
C         37.30798       34.46509      -14.76891
O         38.32548       34.97966      -14.32345
C         35.48207       33.59911      -13.28330
H         37.53339       32.79581      -12.06857
H         36.54304       32.40661      -14.74759
H         35.10416       32.71347      -12.73038
H         35.68799       34.41136      -12.55286
H         34.66975       33.93708      -13.94520
N         36.71568       35.07069      -15.84687
C         35.59080       34.58560      -16.65239
C         35.09918       35.70992      -17.56675
O         35.92930       36.30642      -18.24010
C         36.02987       33.40884      -17.53478
H         37.15580       35.95490      -16.14884
H         34.76443       34.24489      -16.01844
H         36.37664       32.54824      -16.93482
H         35.17139       33.06411      -18.15268
H         36.85287       33.71368      -18.21633
N         33.78431       36.05829      -17.71261
C         32.65290       35.33509      -17.13528
C         32.50762       35.54256      -15.62955
O         31.71264       34.83976      -15.02087
C         31.36264       35.75892      -17.88484
C         30.13379       34.88373      -17.59785
C         28.97369       35.32027      -18.44708
O         28.48043       34.55144      -19.25689
O         28.47027       36.56297      -18.31743
H         33.58162       36.81622      -18.38524
H         32.81679       34.25569      -17.34971
H         31.56579       35.66964      -18.97619
H         31.13755       36.82635      -17.66270
H         29.82526       34.95539      -16.53688
H         30.38406       33.82479      -17.82986
N         33.21987       36.48714      -14.95267
C         33.04889       36.69034      -13.52878
H         33.69945       37.51966      -13.18047
H         31.99165       36.95289      -13.30691
H         33.31831       35.76726      -12.97442
H         33.88235       37.09887      -15.44959
Ca        43.82142       31.87940      -11.34391
O         46.12290       34.30576      -11.25188
H         46.25602       35.22419      -11.59490
H         47.03334       33.91913      -11.22150
O         43.11235       34.80011      -11.21521
H         42.21264       34.97134      -10.83993
H         43.47919       35.69907      -11.40700
O         43.50212       31.63549      -14.31229
H         43.40569       30.75125      -14.74594
H         44.47632       31.73443      -14.16716

Ca 1.0



