%chk=apoCaM-CA-Ng.loop2.water4.frame1263.chk
%nprocshared=20
%mem=10GB
%nosave
#b3lyp/svp scf=(tight,noincore,xqc) Test 
#IOP(5/87=12) Density=Current Pop=(MK,readradii) iop(6/33=2) iop(6/42=6)

apoCaM-CA-Ng.loop2.water4.frame1263 

   -2  1 
C         34.94374       58.69521       33.64833
C         34.97303       58.62918       32.14265
O         35.78607       57.88207       31.61872
H         35.18020       59.72669       33.98334
H         33.96703       58.38355       34.05654
H         35.70969       58.01523       34.07933
N         34.17253       59.39681       31.34466
C         33.15790       60.32733       31.83020
C         32.83394       61.38117       30.77415
O         32.43008       61.04622       29.67040
C         31.87361       59.59903       32.30913
C         31.20502       58.68459       31.31212
O         30.07169       58.05005       31.66707
O         31.67733       58.48432       30.20549
H         34.33063       59.34109       30.32592
H         33.56668       60.87787       32.70381
H         31.13981       60.37102       32.62816
H         32.09458       58.98368       33.19832
N         32.96860       62.70213       31.08211
C         32.65483       63.78890       30.16320
C         33.64022       63.85410       29.01709
O         34.84006       63.86595       29.25842
C         32.69464       65.13010       30.90238
H         33.26894       62.95117       32.03720
H         31.61335       63.67095       29.78802
H         33.70618       65.32712       31.31718
H         32.42344       65.95328       30.20564
H         31.95788       65.12270       31.73334
N         33.19215       64.00424       27.74076
C         34.09467       64.21606       26.61190
C         33.44949       65.03204       25.49861
O         32.26830       65.34389       25.55110
C         34.71691       62.87849       26.14689
C         33.72363       61.75018       26.12235
O         32.74289       61.78153       25.39683
O         33.91278       60.71869       26.97113
H         32.17401       64.05849       27.58712
H         34.91861       64.89021       26.93618
H         35.49099       62.59314       26.89094
H         35.22955       62.98352       25.16659
N         34.24110       65.50335       24.49408
C         33.79766       66.39235       23.43389
C         32.76789       65.74908       22.55413
O         31.74611       66.36446       22.28259
H         35.24151       65.25332       24.49790
H         34.67473       66.63048       22.79498
H         33.41573       67.34832       23.85675
N         32.97606       64.49146       22.07454
C         32.04869       63.80775       21.17788
C         30.63053       63.69048       21.73315
O         29.74382       63.33413       20.96881
C         32.61922       62.42496       20.79037
C         32.77426       61.51360       21.99011
N         34.00067       61.11749       22.40622
O         31.78244       61.13456       22.59499
H         33.84891       64.01370       22.34750
H         31.98151       64.42650       20.25506
H         33.61237       62.59202       20.31758
H         31.97279       61.92950       20.03487
H         34.85386       61.43309       21.92264
H         34.10033       60.50383       23.22841
N         30.32912       63.98495       23.03335
C         28.97281       63.99667       23.55045
C         28.14117       65.10541       22.92473
O         28.66597       65.86852       22.12557
H         31.07912       64.20379       23.69744
H         29.00316       64.17168       24.64728
H         28.51035       63.00603       23.36405
N         26.81479       65.26332       23.19676
C         26.04574       64.40544       24.08590
C         25.23008       63.47374       23.22209
O         24.46376       63.93768       22.38852
C         25.17636       65.25249       25.04083
C         24.35305       64.36051       25.98304
O         26.01644       66.08210       25.80168
H         26.30084       65.99318       22.67656
H         26.71655       63.79355       24.72314
H         24.48444       65.88008       24.43175
H         25.43526       66.75585       26.24284
H         23.74208       64.98912       26.66455
H         23.66111       63.71058       25.40668
H         25.02376       63.71992       26.59485
N         25.38158       62.12747       23.36136
C         24.74479       61.14231       22.50186
C         23.75090       60.34805       23.33883
O         24.17157       59.79689       24.34703
C         25.84340       60.23065       21.88344
C         26.90620       61.03139       21.08328
C         25.23716       59.11563       21.02154
C         26.36641       61.81607       19.88355
H         26.00077       61.77358       24.10770
H         24.22822       61.65503       21.68081
H         26.38865       59.73061       22.71651
H         27.68404       60.32549       20.71916
H         27.41102       61.74847       21.76067
H         24.58761       58.47330       21.64355
H         24.63054       59.52578       20.18904
H         26.04185       58.46964       20.61096
H         25.64110       62.59086       20.20292
H         27.20881       62.33402       19.37943
H         25.88684       61.14171       19.14609
N         22.41474       60.25018       23.05590
C         21.72521       60.79725       21.88943
C         20.65316       59.82358       21.42312
O         19.79680       59.46864       22.22263
C         21.09184       62.15148       22.26910
C         20.44879       62.87796       21.11076
O         20.45566       62.41348       19.98102
O         19.87277       64.07535       21.32451
H         21.82875       59.78202       23.76188
H         22.42078       60.96822       21.04941
H         21.88755       62.81474       22.67052
H         20.33439       61.99833       23.06829
N         20.60481       59.39077       20.12732
C         19.50544       58.57215       19.62792
C         19.95975       57.68450       18.47176
O         20.44246       58.22606       17.48650
C         18.36565       59.47980       19.11338
C         17.17226       58.64129       18.71292
C         16.81505       58.49621       17.36138
C         16.42335       57.97105       19.69610
C         15.73611       57.68104       17.00234
C         15.34104       57.16536       19.33363
C         15.00014       57.01650       17.98741
H         21.29015       59.76537       19.45387
H         19.10423       57.96958       20.46470
H         18.74516       60.06812       18.24796
H         18.04632       60.20830       19.88985
H         17.38253       58.99417       16.58529
H         16.68018       58.07140       20.74341
H         15.47338       57.55935       15.95953
H         14.77063       56.65207       20.09695
H         14.16678       56.38489       17.70814
N         19.78749       56.32533       18.46817
C         19.22701       55.53702       19.55199
C         20.25896       55.26771       20.64381
O         19.91649       54.60035       21.60830
C         18.80831       54.24573       18.83994
C         19.92665       54.07254       17.83156
C         20.10207       55.49932       17.31751
H         18.31229       55.99029       19.98540
H         18.61485       53.37688       19.50440
H         17.87901       54.45306       18.25899
H         20.84039       53.78570       18.39978
H         19.75433       53.31622       17.03721
H         21.14122       55.64166       16.94917
H         19.37326       55.73876       16.51188
N         21.55028       55.70532       20.53034
C         22.60977       55.37852       21.48151
C         23.97551       55.45102       20.79326
O         24.17120       56.34833       19.98548
C         22.64358       56.34276       22.68676
C         21.44726       56.22764       23.63427
C         21.67426       57.05218       24.87094
O         20.88501       57.92860       25.18265
O         22.74219       56.80993       25.65693
H         21.82383       56.18990       19.66702
H         22.44041       54.34450       21.82740
H         22.73655       57.39137       22.33426
H         23.55282       56.08618       23.27584
H         21.33211       55.16981       23.95198
H         20.52040       56.56294       23.12289
N         25.01265       54.60330       21.06853
C         25.02377       53.53481       22.05070
H         25.82042       53.74136       22.79531
H         24.08681       53.41544       22.61726
H         25.25097       52.57393       21.54452
H         25.89546       54.74612       20.55349
Ca        32.44876       59.04563       27.33285
O         30.40443       58.48000       25.52548
H         30.56253       58.60071       24.55618
H         29.50412       58.07568       25.59187
O         33.92116       57.83131       25.06190
H         34.55490       58.59093       25.02118
H         33.18450       58.09002       24.45311
O         35.00711       57.56098       28.17369
H         35.04162       57.12115       29.05984
H         35.77452       58.18663       28.17522
O         30.11343       61.12423       27.66234
H         30.63341       61.94261       27.46228
H         29.63875       60.91940       26.81809

Ca 1.0



