%chk=apoCaM-CA-Ng.loop1.water6.frame678.chk
%nprocshared=20
%mem=10GB
%nosave
#b3lyp/svp scf=(tight,noincore,xqc) Test 
#IOP(5/87=12) Density=Current Pop=(MK,readradii) iop(6/33=2) iop(6/42=6)

apoCaM-CA-Ng.loop1.water6.frame678 

   0  1 
C          6.12576       49.56177       76.03493
C          5.19010       49.14119       74.94211
O          4.14151       49.74781       74.79217
H          7.10174       49.85745       75.59750
H          5.70936       50.42557       76.59747
H          6.27814       48.71833       76.74025
N          5.51809       48.11030       74.11503
C          4.64171       47.65856       73.03436
C          3.34584       47.05298       73.56032
O          3.20357       46.87443       74.76194
C          5.38370       46.67502       72.09762
C          5.90101       45.41970       72.75398
O          5.73190       45.19221       74.07019
O          6.50529       44.60085       72.08063
H          6.43973       47.66537       74.24350
H          4.37489       48.54707       72.42037
H          6.25258       47.20940       71.65726
H          4.71245       46.38282       71.26265
N          2.34494       46.72920       72.68955
C          1.05525       46.18209       73.10041
C          0.82285       44.78825       72.53123
O         -0.25747       44.25134       72.73395
C         -0.06497       47.17757       72.72435
C         -0.40845       47.25824       71.22618
C         -1.33015       48.45084       70.89340
C         -2.63819       48.55166       71.70363
N         -3.51538       47.39788       71.51310
H          2.49511       46.90107       71.68480
H          1.01604       46.09325       74.20483
H          0.25627       48.17743       73.08265
H         -0.99132       46.89006       73.26847
H         -0.88170       46.30434       70.90826
H          0.51518       47.39387       70.62694
H         -1.57222       48.41586       69.80883
H         -0.75912       49.38641       71.07987
H         -3.17492       49.46993       71.37553
H         -2.41284       48.67697       72.78406
H         -4.39470       47.55345       72.05824
H         -3.75939       47.29401       70.50198
H         -3.05899       46.52707       71.86573
N          1.80401       44.12511       71.84510
C          1.64931       42.78909       71.28779
C          2.57104       41.85246       72.11142
O          3.91452       42.09171       71.79612
C          2.01408       42.85436       69.78439
C          1.88156       41.55322       69.04934
O          0.78555       41.04169       68.89202
O          2.96906       40.97602       68.50334
H          2.73148       44.56015       71.73782
H          0.59626       42.46579       71.39823
H          3.06327       43.21074       69.68804
H          1.36443       43.60242       69.28065
N          2.30779       40.40329       72.07700
C          0.90590       39.94359       72.07160
C         -0.03773       40.46771       73.14618
O         -1.21040       40.14014       73.03663
H          2.80188       39.97272       72.89049
H          0.90490       38.83291       72.12156
H          0.46130       40.19769       71.09701
N          0.34182       41.29002       74.16886
C         -0.61111       41.86008       75.12843
C          0.07436       42.89282       76.00193
O          1.11263       42.59639       76.57811
C         -1.33857       40.79024       75.98255
C         -0.44912       39.93673       76.84641
O          0.24682       40.47710       77.86404
O         -0.40841       38.73006       76.67063
H          1.33120       41.55828       74.25178
H         -1.40613       42.38783       74.55487
H         -1.92389       40.12740       75.31461
H         -2.07837       41.30070       76.63726
N         -0.44547       44.14299       76.14206
C          0.26006       45.15688       76.90451
C         -0.47406       46.47233       77.00324
O         -1.66320       46.55587       76.72405
H         -1.33866       44.37117       75.67887
H          1.23050       45.33534       76.39538
H          0.47286       44.80292       77.93689
N          0.22954       47.57110       77.37927
C         -0.32641       48.91432       77.48074
C          0.27743       49.64121       78.67073
O          1.07072       49.06699       79.40713
C         -0.08754       49.69074       76.15860
C          1.38655       49.76620       75.77458
O         -0.79754       49.07639       75.11898
H          1.24842       47.45986       77.50949
H         -1.42770       48.87482       77.63815
H         -0.44162       50.74122       76.24662
H         -1.74434       49.36393       75.20661
H          1.50157       50.35912       74.84309
H          1.98307       50.24702       76.57845
H          1.78137       48.75000       75.58872
N         -0.04398       50.94023       78.90047
C          0.49632       51.71263       80.00604
C         -0.27039       51.35610       81.26165
O          0.34888       51.19028       82.30306
C          0.49106       53.22773       79.65959
C          1.25604       53.51840       78.33009
C          1.07091       54.06971       80.80939
C          2.74067       53.12481       78.31929
H         -0.71886       51.40500       78.27551
H          1.56151       51.43899       80.16980
H         -0.56222       53.55249       79.50680
H          1.18357       54.60359       78.10321
H          0.76405       52.98277       77.49081
H          0.46159       53.94729       81.72835
H          2.11337       53.76892       81.04340
H          1.06052       55.14650       80.53675
H          3.31067       53.68132       79.09021
H          2.87523       52.03480       78.47416
H          3.17804       53.37169       77.32891
N         -1.60615       51.07992       81.19605
C         -2.36199       50.55238       82.32316
C         -3.63920       51.32801       82.54917
O         -3.98630       52.19481       81.75809
C         -2.64832       49.04103       82.10731
C         -3.42726       48.74091       80.81963
O         -1.43528       48.33624       82.06326
H         -2.08953       51.16127       80.28931
H         -1.76843       50.64745       83.25843
H         -3.26178       48.64963       82.95145
H         -1.10159       48.28385       82.99748
H         -4.40354       49.26882       80.81273
H         -2.84496       49.03687       79.92183
H         -3.61845       47.64906       80.74807
N         -4.37998       51.05891       83.65913
C         -5.62066       51.73682       83.98648
C         -5.38611       52.61606       85.20180
O         -5.60230       53.81611       85.10108
C         -6.79237       50.71326       84.10899
C         -6.68116       49.69248       85.24968
O         -6.89829       49.99524       82.90545
H         -4.02446       50.35675       84.32362
H         -5.91847       52.41701       83.15623
H         -7.74287       51.26805       84.29016
H         -7.34172       50.59059       82.24685
H         -6.73642       50.18740       86.23903
H         -7.54048       48.98983       85.20482
H         -5.75046       49.09293       85.16965
N         -4.92202       52.09911       86.37566
C         -4.71084       52.89556       87.57578
C         -3.40856       52.51401       88.25506
O         -3.15001       51.33042       88.43067
C         -5.91382       52.69265       88.50985
C         -5.81761       53.56171       89.77607
C         -7.17184       53.62048       90.49641
C         -7.14207       54.49288       91.76153
N         -6.40258       53.85731       92.85276
H         -4.76446       51.08498       86.44834
H         -4.70211       53.98234       87.33500
H         -6.03814       51.62332       88.79056
H         -6.81167       53.00623       87.93204
H         -5.55008       54.60353       89.49084
H         -5.01673       53.15842       90.43071
H         -7.53613       52.60208       90.75051
H         -7.89687       54.08243       89.78997
H         -8.19048       54.65002       92.09788
H         -6.70819       55.49151       91.52871
H         -5.40407       53.69925       92.59320
H         -6.43474       54.48100       93.69125
H         -6.85463       52.94644       93.09940
N         -2.59109       53.47800       88.76792
C         -1.41017       53.15363       89.55662
C         -0.29193       52.59288       88.68063
O          0.11560       51.47102       88.94523
C         -0.98552       54.34933       90.43963
C          0.13825       53.96968       91.42241
C          0.51847       55.09405       92.35008
O          1.47521       54.88906       93.27490
O         -0.02612       56.18556       92.28393
H         -2.88154       54.46499       88.68887
H         -1.70787       52.37375       90.29640
H         -1.87227       54.65646       91.03851
H         -0.68262       55.22318       89.84040
H          1.04350       53.66273       90.85728
H         -0.19948       53.11288       92.04573
N          0.26873       53.24877       87.61953
C         -0.11928       54.55776       87.13722
H          0.09047       55.34075       87.88531
H          0.48082       54.81472       86.23820
H         -1.18842       54.56424       86.84444
H          1.01634       52.76723       87.09532
Ca         5.08030       42.30147       73.73753
O          4.56855       39.70179       74.88164
H          4.48219       38.84874       74.38729
H          3.70572       39.81275       75.35367
O          6.62931       40.26974       72.06839
H          6.11972       40.31385       71.22053
H          7.55867       40.07165       71.79084
O          6.50551       43.27383       76.77627
H          7.23775       43.53113       77.39092
H          5.74535       43.05872       77.37316
O          3.41994       43.94540       75.46927
H          4.00358       44.55671       75.98378
H          3.62048       43.04899       75.83819
O          8.53536       42.94250       74.00649
H          9.29404       42.38444       73.70056
H          8.94719       43.80762       74.25603
O          7.36390       40.47627       75.45873
H          8.08620       40.82124       76.04091
H          7.03818       39.66537       75.92391

Ca 1.0



