%chk=apoCaM-CA-Ng.loop4.water2.frame413.chk
%nprocshared=20
%mem=10GB
%nosave
#b3lyp/svp scf=(tight,noincore,xqc) Test 
#IOP(5/87=12) Density=Current Pop=(MK,readradii) iop(6/33=2) iop(6/42=6)

apoCaM-CA-Ng.loop4.water2.frame413 

   -3  1 
C         87.26077       65.15851        5.07685
C         86.90235       63.75968        5.47959
O         86.44142       63.01784        4.62799
H         88.01776       65.12416        4.26470
H         86.35405       65.67928        4.70268
H         87.67676       65.73440        5.92893
N         87.10947       63.32175        6.75720
C         86.80339       61.97447        7.23129
C         87.56489       60.93098        6.43070
O         86.96085       60.10797        5.76645
C         85.27819       61.73690        7.41991
C         84.38728       61.90088        6.22103
O         84.48830       61.15892        5.25991
O         83.42812       62.84698        6.22831
H         87.53980       63.97020        7.43372
H         87.19153       61.87864        8.27084
H         84.93238       62.46317        8.18834
H         85.12126       60.71859        7.83880
N         88.92875       60.90872        6.51527
C         89.84451       59.96062        5.87515
C         89.58601       58.53374        6.35655
O         90.31821       58.08396        7.22736
C         89.91237       60.15318        4.33373
C         90.89777       59.18128        3.63088
C         90.27536       61.61575        4.00280
C         92.35833       59.28819        4.08125
H         89.36933       61.61941        7.12049
H         90.85358       60.23084        6.26107
H         88.90987       59.95319        3.90302
H         90.86195       59.37649        2.53695
H         90.56083       58.13587        3.79110
H         90.35159       61.76008        2.90647
H         89.49839       62.30965        4.38769
H         91.24492       61.90677        4.45654
H         92.46260       59.03642        5.15597
H         92.97196       58.56745        3.50111
H         92.76557       60.30278        3.89629
N         88.57384       57.76389        5.85931
C         88.18437       56.48486        6.44686
C         88.87290       55.27448        5.79791
O         89.51844       54.56458        6.55741
C         86.64924       56.38543        6.56448
C         86.05915       57.42560        7.49412
O         84.85483       57.44313        7.68947
O         86.83895       58.31759        8.13848
H         87.99921       58.12766        5.08938
H         88.52500       56.45899        7.50946
H         86.38370       55.38983        6.98150
H         86.18090       56.49849        5.56892
N         88.87581       54.92636        4.47128
C         88.27530       55.64184        3.36224
C         86.79951       55.33758        3.18199
O         86.25524       54.57899        3.97166
H         89.45398       54.11184        4.21002
H         88.76099       55.29326        2.42539
H         88.52057       56.70840        3.46610
N         86.05230       55.86322        2.15848
C         86.54256       56.77934        1.11909
C         87.23738       57.96432        1.80471
O         86.38347       58.41735        2.83212
C         85.35982       57.18055        0.17855
C         84.23913       57.94967        0.83185
O         83.00942       57.40812        0.91055
O         84.41537       59.09048        1.22805
H         85.05244       55.60614        2.13871
H         87.30195       56.25198        0.50261
H         84.94363       56.24075       -0.24277
H         85.69228       57.78405       -0.68209
N         87.72515       59.07274        0.95650
C         88.35220       58.83271       -0.36602
C         89.68393       58.11293       -0.37031
O         90.12141       57.61838        0.65843
H         88.43211       59.57961        1.53141
H         88.53612       59.83643       -0.80900
H         87.67783       58.30952       -1.06031
N         90.38902       58.03975       -1.54557
C         91.66913       57.34858       -1.69531
C         92.84520       58.29721       -1.93434
O         93.96891       57.81696       -1.89948
C         91.55886       56.20333       -2.73649
C         91.10912       56.58344       -4.16232
C         92.09895       57.42317       -4.91652
N         93.33830       56.95673       -5.18937
O         91.76521       58.52340       -5.32136
H         89.99397       58.50830       -2.37533
H         91.92336       56.85413       -0.73227
H         90.79618       55.49327       -2.34968
H         92.52118       55.64904       -2.78441
H         90.12342       57.09254       -4.12274
H         90.96591       55.64880       -4.74647
H         93.63304       56.01995       -4.88096
H         94.00146       57.52744       -5.72872
N         92.68555       59.64939       -2.07438
C         93.80488       60.59764       -1.97900
C         94.01118       61.45268       -3.21929
O         94.89192       62.30569       -3.17777
C         93.60294       61.51049       -0.73106
C         93.54636       60.67529        0.55647
C         92.35347       62.40408       -0.83563
H         91.73666       60.03591       -2.14645
H         94.76421       60.05596       -1.82831
H         94.48591       62.18296       -0.64492
H         94.47440       60.07363        0.66016
H         93.46402       61.34034        1.44206
H         92.67289       59.98887        0.55109
H         92.28804       63.06884        0.05146
H         92.39858       63.04836       -1.73859
H         91.42699       61.79942       -0.87964
N         93.28000       61.29585       -4.35522
C         93.44586       62.14402       -5.52757
C         92.14051       62.82313       -5.92209
O         92.15741       63.55178       -6.89967
C         93.99468       61.32285       -6.71485
C         95.29639       60.62586       -6.39026
N         96.38579       61.31786       -5.98131
O         95.36962       59.41381       -6.50951
H         92.58490       60.54215       -4.40035
H         94.17663       62.95841       -5.32744
H         94.17677       62.00325       -7.57589
H         93.23953       60.56755       -7.02651
H         96.35978       62.34122       -5.87452
H         97.26337       60.82197       -5.76295
N         90.97517       62.65530       -5.21156
C         89.72508       63.28931       -5.63091
C         88.60805       63.22279       -4.58420
O         88.65959       62.45201       -3.63993
C         89.24935       62.72524       -7.00043
C         89.34185       61.20918       -7.10844
C         90.19798       60.63788       -8.07198
C         88.60416       60.35284       -6.27089
C         90.31774       59.25095       -8.19156
C         88.72915       58.96205       -6.39066
C         89.58431       58.40693       -7.34916
O         89.69968       57.06628       -7.44604
H         90.97344       62.09084       -4.35523
H         89.92706       64.37854       -5.73077
H         89.89793       63.16221       -7.78780
H         88.22028       63.07237       -7.23367
H         90.78133       61.26507       -8.73469
H         87.93529       60.75101       -5.52286
H         90.98467       58.83439       -8.93690
H         88.16354       58.31268       -5.73436
H         90.29218       56.64487       -8.08574
N         87.57161       64.11015       -4.71471
C         86.39423       64.25441       -3.85525
C         86.65324       64.67041       -2.41287
O         85.66891       64.89268       -1.71941
C         85.49541       63.00707       -3.87500
C         85.02546       62.65383       -5.28759
C         83.99212       61.56699       -5.22889
O         84.29458       60.37062       -4.69011
O         82.86538       61.77059       -5.65287
H         87.60978       64.75690       -5.51660
H         85.79155       65.08780       -4.28672
H         84.58746       63.23737       -3.27129
H         86.01222       62.14201       -3.40709
H         85.88685       62.32175       -5.90405
H         84.57523       63.55428       -5.76249
N         87.89565       64.85576       -1.88579
C         88.08898       65.30079       -0.50945
C         88.41350       66.76382       -0.51951
O         87.68199       67.53943        0.08179
C         89.20590       64.50529        0.18297
C         88.95865       63.00570        0.19802
C         87.76131       62.61707        0.99363
O         86.62402       62.86617        0.62803
O         87.97239       61.83511        2.04620
H         88.72868       64.74578       -2.47815
H         87.15836       65.18313        0.08791
H         89.32529       64.86032        1.23212
H         90.16810       64.66930       -0.34571
H         89.84461       62.53309        0.67365
H         88.87246       62.59342       -0.82902
N         89.48485       67.22439       -1.21396
C         89.79298       68.63014       -1.28227
H         90.69207       68.78368       -1.91307
H         88.93680       69.17454       -1.73525
H         89.98797       69.02059       -0.26176
H         90.08842       66.56294       -1.72521
Ca        86.37830       60.64764        2.94574
O         83.89840       58.52190        4.31759
H         84.20796       58.16275        5.18571
H         83.46192       57.75419        3.87166
O         83.57287       62.35142        2.42795
H         82.97060       62.06141        1.69740
H         83.86573       63.25953        2.16323

Ca 1.0



