%chk=apoCaM-CA-Ng.loop3.water4.frame1080.chk
%nprocshared=20
%mem=10GB
%nosave
#b3lyp/svp scf=(tight,noincore,xqc) Test 
#IOP(5/87=12) Density=Current Pop=(MK,readradii) iop(6/33=2) iop(6/42=6)

apoCaM-CA-Ng.loop3.water4.frame1080 

   0  1 
C         41.85276       78.18191        1.42291
C         41.96031       79.11414        0.25357
O         41.77755       80.30964        0.43542
H         40.83386       78.25003        1.85809
H         42.03970       77.12982        1.12149
H         42.59942       78.46779        2.19295
N         42.26186       78.63840       -0.98706
C         42.38312       79.50502       -2.15069
C         41.09763       80.27019       -2.42727
O         41.17488       81.46546       -2.66009
C         42.91587       78.75186       -3.39507
C         42.12014       77.59258       -3.94489
O         40.99936       77.14464       -3.35538
O         42.52573       77.02341       -4.94545
H         42.42672       77.62687       -1.10301
H         43.17435       80.26160       -1.94062
H         43.92930       78.36401       -3.15401
H         43.03520       79.50002       -4.20027
N         39.87630       79.67305       -2.35315
C         38.62623       80.38050       -2.61844
C         38.60250       80.81691       -4.07547
O         38.68182       79.98249       -4.96590
C         37.42532       79.49006       -2.20924
C         37.39577       79.38666       -0.66404
C         36.48261       78.31068       -0.06591
C         34.99819       78.44206       -0.41762
N         34.21746       77.45596        0.33463
H         39.82987       78.68740       -2.06532
H         38.57863       81.28958       -1.97736
H         37.53467       78.49092       -2.68524
H         36.46403       79.93676       -2.54564
H         37.11874       80.38290       -0.25155
H         38.41084       79.14317       -0.28526
H         36.58790       78.38691        1.03949
H         36.84464       77.30734       -0.37777
H         34.85948       78.27434       -1.50804
H         34.63416       79.46142       -0.16295
H         34.29083       77.65267        1.36035
H         33.21267       77.51589        0.05435
H         34.56747       76.48852        0.14393
N         38.55361       82.14744       -4.37101
C         38.67221       82.70382       -5.71788
C         40.01341       82.35839       -6.34834
O         40.03833       81.91073       -7.48577
C         38.42714       84.23461       -5.70465
C         39.21306       85.03241       -4.69986
O         38.60707       85.63413       -3.82603
O         40.55429       85.12692       -4.73179
H         38.45902       82.80543       -3.58274
H         37.87075       82.29168       -6.36989
H         37.35293       84.38421       -5.45491
H         38.59388       84.65942       -6.71706
N         41.16818       82.53778       -5.65609
C         42.50474       82.28705       -6.16543
C         42.77897       80.82761       -6.48190
O         41.84245       80.04459       -6.54533
H         41.10794       82.88021       -4.68956
H         43.17916       82.58756       -5.35165
H         42.72666       82.92625       -7.04707
N         44.04760       80.34048       -6.64479
C         45.27116       81.11832       -6.47831
C         46.03441       80.57877       -5.27225
O         46.44865       79.42806       -5.32076
C         46.18392       81.03186       -7.72126
C         45.60425       81.69193       -8.94717
N         44.50106       81.20230       -9.55764
O         46.16007       82.67662       -9.41133
H         44.15356       79.33021       -6.83144
H         45.04827       82.18656       -6.33657
H         46.43755       79.97438       -7.95465
H         47.13394       81.55745       -7.47063
H         44.02865       80.35765       -9.20882
H         44.12837       81.66218      -10.40136
N         46.29668       81.31821       -4.15276
C         45.77972       82.66344       -3.93101
C         46.27760       83.30561       -2.65990
O         47.12445       82.74572       -1.97776
H         46.86574       80.87023       -3.41843
H         44.68066       82.59493       -3.84931
H         46.07193       83.33659       -4.76334
N         45.76241       84.51118       -2.27006
C         46.21963       85.17499       -1.05341
C         45.30048       86.32161       -0.62227
O         44.46809       86.76911       -1.39805
C         47.64935       85.72141       -1.29922
C         48.38855       86.02614       -0.02961
C         48.74230       87.33947        0.31549
C         48.75610       84.96600        0.81268
C         49.44709       87.58555        1.49847
C         49.46817       85.21171        1.98528
C         49.81478       86.52391        2.33462
O         50.50314       86.77308        3.46595
H         45.00541       84.91972       -2.83332
H         46.18697       84.40608       -0.24978
H         47.57129       86.61445       -1.96047
H         48.27725       84.98617       -1.84512
H         48.47040       88.16955       -0.32433
H         48.50252       83.94589        0.54984
H         49.71192       88.60114        1.76297
H         49.75195       84.37993        2.61714
H         50.78017       86.06286        4.06264
N         45.39365       86.82809        0.64339
C         44.57905       87.95125        1.12046
C         44.95385       89.25771        0.42442
O         45.90694       89.28591       -0.34245
C         44.63111       88.10062        2.67883
C         43.84976       86.94000        3.34278
C         46.06678       88.24091        3.23361
C         43.63937       87.12930        4.84643
H         46.04065       86.35950        1.28864
H         43.51844       87.75178        0.84880
H         44.08148       89.02759        2.94508
H         44.34799       85.96594        3.15099
H         42.83349       86.90285        2.89028
H         46.65571       87.30847        3.11704
H         46.60380       89.06824        2.72635
H         46.04693       88.47528        4.31708
H         44.60015       87.09912        5.39719
H         43.12926       88.09724        5.04373
H         42.99488       86.31202        5.23362
N         44.20068       90.38163        0.63293
C         44.43221       91.65896       -0.04082
C         43.22611       92.02076       -0.89399
O         42.21956       91.33808       -0.80771
C         44.70541       92.75233        0.99985
O         45.83459       92.41025        1.75572
H         43.39518       90.32622        1.27510
H         45.30946       91.58050       -0.71906
H         43.81753       92.84461        1.66793
H         44.88647       93.72361        0.48952
H         45.88319       93.07039        2.49538
N         43.27588       93.06054       -1.78184
C         42.20110       93.39697       -2.72178
C         40.94168       93.95394       -2.06379
O         39.94180       94.09173       -2.75489
C         41.88570       92.19713       -3.63387
H         44.14942       93.60392       -1.84907
H         42.56609       94.19990       -3.39860
H         42.81516       91.85599       -4.13653
H         41.44733       91.34661       -3.07884
H         41.15815       92.48791       -4.42062
N         40.92499       94.35379       -0.75855
C         39.75891       94.91212       -0.07668
C         38.64248       93.88833       -0.01605
O         37.50573       94.17955       -0.36434
C         39.31518       96.24569       -0.70551
H         41.78433       94.26790       -0.19743
H         40.06104       95.12778        0.97264
H         38.48711       96.69177       -0.11383
H         40.16240       96.96271       -0.71731
H         38.95374       96.10855       -1.74555
N         38.92847       92.63668        0.42605
C         37.94990       91.56320        0.50919
C         37.29889       91.60611        1.86547
O         36.08401       91.72605        1.93928
C         38.64859       90.20808        0.28301
C         39.22771       90.15095       -1.13076
C         40.08761       88.94902       -1.34271
O         41.09921       88.76854       -0.68351
O         39.77464       88.10997       -2.33268
H         39.90651       92.42437        0.68011
H         37.17387       91.67440       -0.28433
H         37.92999       89.36846        0.41292
H         39.46626       90.08736        1.02674
H         39.85203       91.03957       -1.33099
H         38.39465       90.15874       -1.86859
N         38.06353       91.52683        2.99011
C         37.52314       91.55966        4.33067
H         36.41638       91.64026        4.33849
H         37.81391       90.62861        4.85960
H         37.94668       92.43090        4.87214
H         39.08730       91.44590        2.89867
Ca        41.17280       86.59972       -3.18790
O         42.76537       89.04787       -3.47984
H         43.68414       89.37888       -3.32002
H         42.60106       89.21361       -4.44236
O         42.64469       84.00466       -2.09086
H         41.67456       83.98445       -2.28525
H         42.74788       83.45788       -1.27191
O         40.99686       85.50960        0.06358
H         40.51199       86.04870        0.73750
H         40.41684       84.72130       -0.08841
O         43.75043       86.36957       -4.71562
H         44.61038       86.74719       -4.40164
H         43.99797       85.53062       -5.17932

Ca 1.0



