%chk=apoCaM-CA-Ng.loop3.water5.frame1076.chk
%nprocshared=20
%mem=10GB
%nosave
#b3lyp/svp scf=(tight,noincore,xqc) Test 
#IOP(5/87=12) Density=Current Pop=(MK,readradii) iop(6/33=2) iop(6/42=6)

apoCaM-CA-Ng.loop3.water5.frame1076 

   0  1 
C         29.40636       79.83916        9.94920
C         29.49640       81.32714       10.11721
O         29.73405       81.78455       11.22562
H         30.36316       79.37280       10.26226
H         28.57962       79.44378       10.57482
H         29.21038       79.56177        8.89132
N         29.29733       82.14726        9.05062
C         29.37430       83.59986        9.11941
C         27.96943       84.24629        9.00979
O         28.13708       85.63433        9.02707
C         30.43273       84.13466        8.11576
C         30.27707       83.65273        6.69695
O         29.27437       83.90110        6.05323
O         31.26986       82.94859        6.12071
H         29.07479       81.71527        8.14179
H         29.72626       83.92564       10.12347
H         31.42928       83.79090        8.46634
H         30.44745       85.24647        8.13048
N         27.17957       83.84938        7.83429
C         25.74953       84.22526        7.94480
C         25.43621       85.13730        6.77540
O         24.66416       84.78473        5.89342
C         24.80973       82.99061        7.97663
C         25.03218       82.08418        9.20389
C         24.07222       80.87860        9.23232
C         22.60273       81.27114        9.47606
N         21.74110       80.08883        9.49598
H         27.27878       82.83634        7.60823
H         25.54192       84.79782        8.87434
H         24.94203       82.39065        7.04919
H         23.77016       83.37691        8.00063
H         24.92056       82.66736       10.14408
H         26.06764       81.68450        9.17004
H         24.38533       80.20834       10.06259
H         24.16494       80.31224        8.27989
H         22.23741       81.95369        8.68167
H         22.52480       81.79799       10.45341
H         22.05232       79.42197       10.23891
H         20.75827       80.38456        9.69728
H         21.76471       79.61534        8.56346
N         26.05438       86.34533        6.70637
C         26.00890       87.22058        5.54707
C         27.38190       87.85451        5.38034
O         27.51518       89.06779        5.30096
C         24.83045       88.21056        5.66008
C         24.84237       89.08399        6.89247
O         25.82497       89.00029        7.80998
O         23.93215       89.87690        7.06936
H         26.68593       86.61019        7.47147
H         25.85411       86.60625        4.63180
H         23.88804       87.62072        5.67615
H         24.81491       88.85783        4.75735
N         28.46912       87.03418        5.38675
C         29.84806       87.48119        5.34233
C         30.25142       88.00619        3.98788
O         29.41966       88.04412        3.09210
H         28.30873       86.02571        5.50181
H         30.48313       86.60076        5.56081
H         30.01800       88.24745        6.12435
N         31.52294       88.42753        3.72222
C         32.63264       88.43970        4.67914
C         32.98052       87.02113        5.12193
O         33.23714       86.19736        4.25274
C         33.86998       89.08174        4.00376
C         35.06053       89.19908        4.92372
N         35.00639       89.96975        6.03460
O         36.09247       88.60422        4.65098
H         31.70474       88.77318        2.76585
H         32.34820       89.08034        5.53803
H         33.61016       90.10191        3.64706
H         34.15158       88.47366        3.11429
H         34.15088       90.49072        6.27503
H         35.82531       90.04964        6.65549
N         33.04070       86.62578        6.42944
C         32.82859       87.52020        7.56560
C         33.07211       86.84525        8.90369
O         33.32528       85.65387        8.95247
H         33.29403       85.64242        6.60315
H         31.80124       87.92945        7.55217
H         33.55469       88.35219        7.49294
N         33.07779       87.60036       10.04524
C         33.44197       87.04211       11.34926
C         32.41950       87.42054       12.41265
O         31.56844       88.24721       12.14033
C         34.83699       87.59996       11.69813
C         35.53805       86.86367       12.80594
C         35.89745       87.51666       13.99481
C         35.87784       85.51195       12.63080
C         36.58863       86.82346       14.99396
C         36.56998       84.82347       13.62693
C         36.93063       85.47800       14.81244
O         37.61041       84.82690       15.77704
H         32.92170       88.61535        9.96710
H         33.48460       85.93672       11.27705
H         34.74640       88.68810       11.91552
H         35.49609       87.50024       10.80732
H         35.64984       88.55991       14.14621
H         35.62061       84.99469       11.71445
H         36.86617       87.33507       15.90641
H         36.83194       83.78466       13.47062
H         37.87800       83.90167       15.67957
N         32.46219       86.86930       13.66824
C         31.52909       87.27731       14.72639
C         31.62940       88.76936       15.01486
O         32.60319       89.40485       14.62825
C         31.70467       86.47213       16.06597
C         31.07691       85.06215       15.96597
C         33.17425       86.42429       16.54770
C         31.03209       84.32636       17.31268
H         33.16383       86.14510       13.85221
H         30.49625       87.11456       14.34752
H         31.11331       87.00153       16.84613
H         31.60781       84.44113       15.21442
H         30.02028       85.18150       15.63898
H         33.80611       85.79990       15.88292
H         33.60747       87.44357       16.59981
H         33.24856       85.98450       17.56272
H         32.04977       84.08490       17.68001
H         30.50641       84.94252       18.07512
H         30.47829       83.37086       17.19967
N         30.62455       89.38834       15.70341
C         30.63486       90.80304       16.06159
C         29.38819       91.53480       15.57073
O         28.46565       90.89795       15.07975
C         30.74498       90.90378       17.58783
O         29.64565       90.27082       18.19097
H         29.82053       88.81831       16.01336
H         31.51939       91.30479       15.61175
H         30.78621       91.96385       17.91320
H         31.69322       90.39814       17.88719
H         29.94505       89.96573       19.08621
N         29.30995       92.89860       15.68663
C         28.16555       93.73018       15.29836
C         26.95479       93.56639       16.21434
O         25.93308       94.18180       15.94310
C         27.79647       93.52458       13.82039
H         30.13164       93.39628       16.06325
H         28.46918       94.79641       15.39891
H         27.40165       92.50858       13.62437
H         27.01106       94.25170       13.52071
H         28.68689       93.69975       13.18073
N         27.00578       92.79567       17.33894
C         25.90234       92.59256       18.26944
C         24.73133       91.90014       17.60015
O         23.58712       92.28230       17.80913
C         25.50866       93.89562       18.98524
H         27.87862       92.30676       17.57526
H         26.26797       91.89061       19.05196
H         25.10344       94.64482       18.27412
H         24.73252       93.69134       19.75408
H         26.39426       94.33006       19.49487
N         24.95955       90.83628       16.78364
C         23.88991       90.01698       16.23513
C         23.33107       89.15892       17.34774
O         22.13746       89.22094       17.60592
C         24.41200       89.13523       15.08384
C         24.77018       89.99209       13.85899
C         25.28344       89.13348       12.74474
O         24.69734       89.09128       11.67474
O         26.40160       88.40858       12.92209
H         25.93605       90.57676       16.57393
H         23.08374       90.65740       15.80866
H         23.61321       88.42410       14.77662
H         25.29371       88.54592       15.42116
H         25.54847       90.74069       14.11701
H         23.86024       90.53595       13.51814
N         24.15954       88.34801       18.06669
C         23.71360       87.50836       19.15876
H         22.61768       87.57168       19.32173
H         23.97763       86.45289       18.93974
H         24.22717       87.81986       20.09277
H         25.16669       88.33403       17.84494
Ca        26.63764       86.57451       10.45302
O         27.19012       90.47964       10.24827
H         28.09933       90.82214       10.43882
H         26.73611       91.22450        9.78001
O         28.89638       88.16950       11.61165
H         29.01674       88.20731       12.59396
H         29.29886       87.30497       11.34381
O         23.84272       86.79796        9.53465
H         23.24626       87.44642        9.08428
H         23.24678       86.05954        9.81706
O         28.90303       88.38770        8.58947
H         29.81631       88.68276        8.83077
H         28.55564       89.10757        8.00623
O         25.75602       85.17137       12.87171
H         24.94873       85.58989       12.47876
H         26.07876       84.54888       12.17187

Ca 1.0



