%chk=apoCaM-CA-Ng.loop1.water3.frame1456.chk
%nprocshared=20
%mem=10GB
%nosave
#b3lyp/svp scf=(tight,noincore,xqc) Test 
#IOP(5/87=12) Density=Current Pop=(MK,readradii) iop(6/33=2) iop(6/42=6)

apoCaM-CA-Ng.loop1.water3.frame1456 

   0  1 
C         26.49568       86.30245       91.24401
C         26.26709       87.27668       90.12604
O         26.24745       86.87594       88.97247
H         25.62169       86.31212       91.92850
H         26.63522       85.27239       90.85304
H         27.40423       86.59396       91.81363
N         26.09865       88.59516       90.41211
C         25.89463       89.64090       89.41272
C         27.05454       90.63068       89.45765
O         26.90997       91.75965       89.01057
C         24.57130       90.36297       89.72994
C         23.41286       89.40793       89.78785
O         23.10897       88.74294       88.81061
O         22.70800       89.27866       90.92832
H         26.13958       88.88606       91.40259
H         25.82350       89.22918       88.38500
H         24.36560       91.13012       88.95187
H         24.66124       90.87674       90.71259
N         28.23680       90.26321       90.02510
C         29.34456       91.17112       90.29348
C         29.86800       91.80523       89.01322
O         29.89287       93.02773       88.96858
C         30.43787       90.47792       91.15452
C         29.81500       89.95290       92.47273
C         30.80146       89.24541       93.40056
C         30.02388       88.62488       94.57756
N         30.91051       87.92251       95.49998
H         28.34525       89.28226       90.30420
H         28.96161       91.99456       90.93909
H         31.23117       91.21833       91.39794
H         30.91195       89.63650       90.61060
H         29.02891       89.20870       92.24817
H         29.33848       90.79450       93.02182
H         31.55866       89.97115       93.76769
H         31.31608       88.43152       92.84485
H         29.27593       87.90000       94.18003
H         29.47265       89.41928       95.12878
H         31.42588       87.16483       94.99623
H         31.58621       88.59583       95.92686
H         30.33314       87.49106       96.25827
N         30.23081       91.11575       87.89143
C         30.20791       89.66423       87.71935
C         29.05412       89.25217       86.81748
O         28.35982       90.10724       86.28641
C         31.58200       89.16811       87.23238
C         32.07873       89.93927       86.04528
O         31.44902       89.95343       85.00092
O         33.21078       90.66080       86.15718
H         30.48362       91.68303       87.06652
H         30.00270       89.15563       88.67357
H         31.55134       88.08264       86.99767
H         32.31401       89.31701       88.05569
N         28.70904       87.93501       86.72321
C         27.45806       87.49963       86.12243
C         27.40519       87.57962       84.62163
O         28.41034       87.83488       83.97719
H         29.26928       87.23411       87.23100
H         26.63525       88.10749       86.54976
H         27.26730       86.43850       86.39215
N         26.20798       87.35616       84.00700
C         26.00318       87.31218       82.56148
C         25.27998       86.01598       82.18545
O         24.76803       85.35591       83.08000
C         25.16865       88.54347       82.14867
C         25.92329       89.81737       82.40495
O         25.43754       90.73388       83.26341
O         26.97595       90.03113       81.82473
H         25.37940       87.22256       84.60920
H         26.97518       87.33541       82.04283
H         24.21426       88.54948       82.72007
H         24.91024       88.52883       81.07606
N         25.15967       85.55129       80.90494
C         25.79938       86.11174       79.72603
C         27.29702       85.92356       79.75670
O         27.77355       84.97435       80.36411
H         24.59467       84.70018       80.75640
H         25.51505       87.16518       79.55585
H         25.44147       85.55776       78.83150
N         28.10382       86.77548       79.06494
C         29.56173       86.63874       79.02440
C         30.19419       86.85626       80.43360
O         29.25023       87.45216       81.27204
C         30.19652       87.64313       78.03626
C         29.67814       87.43912       76.60381
O         31.58795       87.45084       78.03593
H         27.65623       87.54758       78.54931
H         29.81193       85.62745       78.63248
H         29.95952       88.67706       78.37979
H         31.98604       88.22712       77.56232
H         29.91053       86.41036       76.25438
H         28.58496       87.60307       76.53141
H         30.17097       88.16343       75.92174
N         30.71495       85.60592       81.01618
C         31.69984       85.69905       82.13451
C         32.39935       87.09946       82.27646
O         31.76165       87.86838       83.26025
C         31.07673       85.11192       83.44798
C         30.56516       83.66646       83.17206
C         32.08901       85.11113       84.61478
C         29.87697       82.98648       84.35795
H         31.19581       85.08399       80.24581
H         32.52066       84.98968       81.87300
H         30.21072       85.74407       83.74331
H         31.41346       83.02503       82.84596
H         29.81873       83.69385       82.34995
H         32.43993       86.13262       84.85412
H         31.62107       84.74030       85.54865
H         32.96871       84.47849       84.37279
H         29.01135       83.58915       84.70344
H         29.51048       81.98690       84.03951
H         30.57979       82.82110       85.19901
N         33.81293       86.95583       82.65264
C         34.53259       88.23119       82.86165
C         35.28459       88.77542       81.64193
O         35.92856       89.80049       81.81219
C         35.48700       88.05574       84.07054
C         36.60703       87.04680       83.80866
O         34.76307       87.61997       85.19131
H         34.34762       86.26817       82.07640
H         33.82081       89.03155       83.16233
H         35.97296       89.03150       84.30767
H         34.19243       88.37655       85.47598
H         37.25283       86.97466       84.70952
H         36.18980       86.04008       83.59837
H         37.23639       87.36948       82.95363
N         35.28379       88.17694       80.40901
C         36.08257       88.68701       79.28707
C         35.63065       90.09588       78.90812
O         34.61998       90.23385       78.23683
C         36.02200       87.72519       78.06671
C         36.64639       86.35913       78.37545
O         34.68573       87.52672       77.67088
H         34.72718       87.32576       80.26385
H         37.14377       88.73453       79.61978
H         36.62196       88.16786       77.23482
H         34.58108       87.89017       76.75351
H         36.58617       85.70762       77.47733
H         37.71509       86.47790       78.65158
H         36.11763       85.84584       79.20552
N         36.30486       91.18806       79.38961
C         35.87877       92.58588       79.26381
C         34.50275       92.80713       79.87697
O         33.55360       92.14248       79.49065
C         35.90754       93.12969       77.82770
C         37.29372       93.02557       77.17413
C         37.33109       93.86497       75.88600
C         38.59495       93.65014       75.03784
N         39.82999       93.98774       75.74644
H         37.15154       91.02184       79.95479
H         36.60823       93.21059       79.82869
H         35.63695       94.20824       77.90115
H         35.15322       92.62817       77.18500
H         37.50224       91.95585       76.95756
H         38.07274       93.41312       77.86687
H         37.23768       94.94219       76.15410
H         36.46268       93.59289       75.24863
H         38.51145       94.29225       74.13239
H         38.63586       92.59053       74.70423
H         40.63451       93.86503       75.08923
H         39.80637       94.98182       76.06928
H         39.97557       93.34651       76.55822
N         34.29928       93.77324       80.81349
C         32.99935       93.95175       81.44693
C         32.70746       92.77115       82.36124
O         31.69547       92.12350       82.13712
C         32.87405       95.31278       82.15704
C         32.90983       96.46273       81.13750
C         32.72598       97.78819       81.81425
O         31.59823       98.04406       82.50508
O         33.58988       98.64588       81.72936
H         35.07808       94.39891       81.06976
H         32.20939       93.97404       80.65925
H         33.67385       95.46597       82.90196
H         31.89084       95.34346       82.67801
H         32.08957       96.33406       80.39720
H         33.87742       96.45221       80.59057
N         33.51791       92.36714       83.38266
C         34.75909       92.99484       83.78485
H         35.48830       93.00200       82.95143
H         34.58003       94.01548       84.16682
H         35.21219       92.41936       84.61999
H         33.23762       91.52639       83.90095
Ca        30.30335       89.16289       82.20470
O         28.72656       91.79155       83.74403
H         28.29008       92.13094       82.92306
H         28.09290       92.01984       84.46948
O         32.11342       89.66641       80.03793
H         32.53590       90.03131       80.85382
H         32.80606       89.07334       79.65936
O         29.42084       91.39710       80.24705
H         28.87488       90.90415       79.58446
H         29.17226       92.34705       80.12057

Ca 1.0



