%chk=apoCaM-CA-Ng.loop2.water4.frame429.chk
%nprocshared=20
%mem=10GB
%nosave
#b3lyp/svp scf=(tight,noincore,xqc) Test 
#IOP(5/87=12) Density=Current Pop=(MK,readradii) iop(6/33=2) iop(6/42=6)

apoCaM-CA-Ng.loop2.water4.frame429 

   -2  1 
C         94.78220       85.63212       68.37143
C         95.90370       86.20425       67.54894
O         97.03058       86.21086       68.01808
H         93.81235       85.68665       67.83311
H         94.99363       84.56787       68.60695
H         94.68715       86.19966       69.32133
N         95.66988       86.69095       66.29750
C         96.70891       87.27311       65.44888
C         97.21237       88.57146       66.05975
O         96.39929       89.43116       66.37302
C         96.14302       87.53444       64.03833
C         97.18548       87.96204       63.03394
O         98.48541       88.07639       63.37117
O         96.84941       88.18301       61.88240
H         94.70885       86.62771       65.92668
H         97.53288       86.53243       65.33690
H         95.34261       88.30407       64.09455
H         95.69474       86.59038       63.65890
N         98.54526       88.78346       66.25934
C         99.05899       89.96304       66.95187
C         98.55652       89.94456       68.37524
O         98.14166       90.97450       68.88594
C        100.58896       89.98490       66.94081
H         99.21362       88.06213       65.94701
H         98.72119       90.88965       66.43528
H        101.00988       89.09003       67.44483
H        100.95149       90.01749       65.89106
H        100.95561       90.89836       67.45902
N         98.46964       88.74849       69.02456
C         97.85570       88.53852       70.31925
C         98.72040       89.14684       71.39862
O         98.26755       90.00072       72.14939
C         96.38444       89.02823       70.30517
C         95.58602       88.50099       71.45601
O         94.41533       88.82479       71.57684
O         96.13306       87.63048       72.32488
H         98.80755       87.90227       68.54392
H         97.84091       87.43794       70.49213
H         95.88312       88.66600       69.38194
H         96.34342       90.13773       70.31047
N        100.01030       88.72241       71.51906
C        100.93882       89.23735       72.50615
C        101.40456       88.17762       73.48169
O        102.17727       88.53461       74.35896
H        100.35729       87.99902       70.86988
H        100.47421       90.05183       73.10309
H        101.81716       89.66588       71.97827
N        100.96663       86.87917       73.43414
C        101.31300       85.89429       74.45682
C        102.03206       84.68366       73.86442
O        102.07655       84.52882       72.65261
C        100.00038       85.48197       75.15774
C        100.20405       84.60492       76.36402
N         99.70905       83.34652       76.39561
O        100.81929       85.03881       77.32647
H        100.31637       86.58094       72.69300
H        101.99485       86.35479       75.20372
H         99.34693       84.97602       74.41210
H         99.46796       86.39650       75.50069
H         99.19927       82.96060       75.58981
H         99.84556       82.75058       77.22473
N        102.65527       83.79937       74.69838
C        103.35661       82.59689       74.27093
C        102.85333       81.41478       75.06634
O        102.90356       81.48470       76.28642
H        102.66895       84.00761       75.70674
H        104.43509       82.72072       74.50556
H        103.25864       82.42351       73.17814
N        102.35512       80.29699       74.45731
C        101.80633       79.17098       75.21762
C        100.30651       79.00829       74.97519
O         99.70323       78.19221       75.65970
C        102.60442       77.86236       74.95309
C        102.40894       77.25829       73.55416
O        103.97156       78.06172       75.21865
H        102.35043       80.25183       73.42785
H        101.91103       79.37561       76.30519
H        102.24335       77.08956       75.66744
H        104.35865       78.57655       74.46221
H        103.01568       76.33196       73.45976
H        101.35011       76.97054       73.41324
H        102.71349       77.96613       72.75653
N         99.63458       79.74931       74.03966
C         98.19614       79.67213       73.80079
C         97.60057       81.06076       73.98473
O         98.02983       81.99535       73.32048
C         97.90966       79.12570       72.37553
C         98.51408       77.71420       72.14985
C         96.39988       79.12279       72.06835
C         97.95723       76.60299       73.05221
H        100.15280       80.41268       73.44748
H         97.71539       78.98203       74.52588
H         98.39593       79.80482       71.63979
H         99.60959       77.77124       72.29079
H         98.34047       77.41539       71.09403
H         95.98778       80.15257       72.11062
H         96.21929       78.73394       71.04445
H         95.84100       78.50239       72.79921
H         96.86917       76.46324       72.89153
H         98.46128       75.64472       72.80741
H         98.14090       76.80990       74.12399
N         96.61219       81.25822       74.89743
C         96.03882       82.56313       75.22437
C         95.22073       82.42489       76.50582
O         94.07733       82.84672       76.56920
C         95.21800       83.12614       74.03085
C         94.46525       84.40437       74.40474
O         93.62156       84.85493       73.38735
O         95.30468       85.45943       74.77449
H         96.29290       80.43355       75.43010
H         96.86632       83.26150       75.47211
H         94.45489       82.36821       73.74732
H         95.86623       83.31106       73.14856
N         95.77111       81.78231       77.57267
C         95.09053       81.55581       78.84099
C         93.66788       81.02548       78.63751
O         93.51916       80.01187       77.96748
C         95.88488       80.50050       79.64482
C         95.24585       80.23831       80.98079
C         95.37824       81.16918       82.02154
C         94.48913       79.07227       81.18554
C         94.76282       80.93445       83.25378
C         93.86256       78.84914       82.41307
C         94.00135       79.77803       83.44774
H         96.72062       81.39354       77.45948
H         95.07923       82.51098       79.40235
H         96.94609       80.79777       79.79314
H         95.89670       79.56393       79.04171
H         95.96043       82.07109       81.87711
H         94.36438       78.34926       80.38826
H         94.87218       81.65195       84.05585
H         93.26654       77.95784       82.55934
H         93.51716       79.60231       84.39875
N         92.57573       81.61042       79.22786
C         91.24306       81.02954       79.18243
C         90.49523       81.34786       77.89676
O         89.46272       80.73462       77.66496
C         90.56317       81.64482       80.40909
C         91.15435       83.04292       80.41998
C         92.62254       82.76082       80.11036
H         91.28748       79.92472       79.30935
H         89.45413       81.58504       80.42098
H         90.95210       81.12745       81.31684
H         90.71105       83.59942       79.56415
H         90.98998       83.63250       81.34675
H         93.08692       83.65631       79.64350
H         93.17276       82.47292       81.03026
N         90.92515       82.30727       77.02886
C         90.24042       82.60359       75.77424
C         90.52270       81.54882       74.70733
O         89.98049       81.68039       73.61839
C         90.63745       84.00905       75.27044
C         90.13330       85.09720       76.23512
C         90.50127       86.46756       75.75519
O         91.79501       86.81414       75.64497
O         89.63236       87.28163       75.48610
H         91.73857       82.87995       77.28780
H         89.14112       82.62971       75.94823
H         90.16782       84.19741       74.27932
H         91.73995       84.06678       75.15160
H         90.56446       84.95759       77.24829
H         89.02570       85.02167       76.31226
N         91.33810       80.47523       74.93552
C         91.60682       79.45121       73.94543
H         92.70080       79.39064       73.76721
H         91.25113       78.47102       74.32764
H         91.10376       79.65047       72.97625
H         91.79527       80.34998       75.84759
Ca        93.98539       87.04746       73.83049
O         96.24202       89.11510       74.90923
H         96.55868       88.94044       75.82989
H         96.99682       88.82566       74.33953
O         92.55329       89.84551       75.20115
H         91.59148       89.61296       75.16501
H         92.63458       90.44073       75.98825
O         94.37901       87.74854       76.98383
H         93.81894       87.21988       77.60546
H         94.55036       88.59784       77.46317
O         91.39223       87.73076       72.54518
H         90.45253       87.93330       72.78082
H         91.33187       87.17223       71.72999

Ca 1.0



