%chk=apoCaM-CA-Ng.loop2.water4.frame8.chk
%nprocshared=20
%mem=10GB
%nosave
#b3lyp/svp scf=(tight,noincore,xqc) Test 
#IOP(5/87=12) Density=Current Pop=(MK,readradii) iop(6/33=2) iop(6/42=6)

apoCaM-CA-Ng.loop2.water4.frame8 

   -2  1 
C         55.75329       44.68189       57.87631
C         54.40675       45.30626       58.08602
O         53.48022       44.60808       58.47316
H         56.50228       45.17457       58.52995
H         55.72545       43.59683       58.11650
H         56.05580       44.80173       56.81465
N         54.22265       46.63730       57.85010
C         52.92531       47.28735       58.01891
C         51.90032       46.77759       57.00553
O         50.71696       47.01180       57.20290
C         53.08235       48.81725       57.90559
C         51.80945       49.55298       58.21775
O         51.23346       49.42204       59.42821
O         51.29669       50.27743       57.37993
H         55.03850       47.20058       57.56255
H         52.57420       47.04540       59.04748
H         53.43224       49.07461       56.88053
H         53.85388       49.15715       58.62986
N         52.28615       46.07838       55.89697
C         51.38344       45.48898       54.91792
C         50.53256       44.41001       55.55836
O         49.32718       44.37415       55.34879
C         50.56170       46.55747       54.17698
H         53.28942       45.92423       55.72320
H         52.01505       44.97664       54.15813
H         51.24100       47.29442       53.69944
H         49.94747       46.08367       53.38133
H         49.87793       47.09705       54.86407
N         51.12459       43.47920       56.36494
C         50.43854       42.33200       56.94743
C         49.23494       42.72904       57.81932
O         48.42410       41.86654       58.12423
C         50.07185       41.35944       55.79780
C         49.71703       39.95880       56.23474
O         49.74293       39.59582       57.52999
O         49.44680       39.12053       55.39058
H         52.13492       43.56096       56.54982
H         51.17284       41.79023       57.58234
H         50.96602       41.24892       55.14461
H         49.24788       41.78433       55.18798
N         49.05048       44.00914       58.26844
C         47.87058       44.43274       59.01158
C         47.69582       43.65189       60.28932
O         46.69329       42.96398       60.42308
H         49.75642       44.72916       58.06686
H         46.97682       44.29336       58.36387
H         47.94830       45.51442       59.25536
N         48.64952       43.68624       61.26086
C         48.59279       42.84947       62.45451
C         48.69608       43.67312       63.72038
O         49.67447       44.39004       63.87884
C         49.77945       41.88442       62.43969
C         49.82554       41.01669       61.21477
N         50.87652       41.09675       60.36851
O         48.91908       40.22970       60.98904
H         49.48329       44.27742       61.11492
H         47.66054       42.24360       62.48047
H         49.72166       41.22851       63.33445
H         50.71402       42.48506       62.48941
H         51.63985       41.76643       60.53799
H         50.93019       40.49084       59.54084
N         47.75051       43.58692       64.69818
C         47.92166       44.24756       65.97993
C         48.98069       43.53613       66.80042
O         48.74080       42.40929       67.20728
H         46.89995       43.02536       64.54199
H         46.97521       44.20594       66.56171
H         48.16324       45.31939       65.81175
N         50.18176       44.12609       67.06269
C         51.22040       43.51614       67.90195
C         52.39236       43.01019       67.06892
O         53.31947       42.45496       67.65157
C         51.66090       44.56710       68.95935
C         52.64233       44.03829       70.01723
O         52.23532       45.67270       68.30770
H         50.37890       45.04346       66.63641
H         50.80747       42.63064       68.43281
H         50.73468       44.87938       69.49669
H         52.10013       46.46197       68.89368
H         52.83569       44.83139       70.77004
H         52.21577       43.15512       70.53656
H         53.62591       43.77342       69.58179
N         52.43157       43.12425       65.71381
C         53.57483       42.70623       64.91116
C         53.19962       41.55026       64.01398
O         52.06085       41.10060       64.06346
C         54.15622       43.92312       64.12754
C         53.20425       44.41466       63.00238
C         54.50689       45.04583       65.12419
C         53.78505       45.55548       62.16603
H         51.62800       43.53343       65.21743
H         54.39153       42.32648       65.56625
H         55.10209       43.59596       63.64464
H         52.23533       44.75092       63.42012
H         53.01103       43.57149       62.30472
H         55.03879       45.87934       64.62596
H         53.58930       45.44949       65.60463
H         55.17864       44.65579       65.91849
H         53.91696       46.47134       62.77693
H         54.75969       45.25687       61.72568
H         53.08253       45.80153       61.34228
N         54.11957       40.97588       63.19964
C         53.82615       39.85781       62.31809
C         54.49427       38.58068       62.84856
O         54.49531       37.56775       62.17049
C         54.24924       40.26851       60.88969
C         53.68864       39.40054       59.79746
O         53.94050       39.67023       58.63393
O         52.86547       38.36961       60.07385
H         55.09402       41.32288       63.22591
H         52.73008       39.66363       62.29134
H         55.35170       40.32107       60.81713
H         53.86556       41.29094       60.68882
N         55.00337       38.55392       64.12146
C         55.58451       37.38006       64.76515
C         56.91546       37.02281       64.11307
O         57.77653       37.88645       64.06816
C         55.80662       37.71067       66.26285
C         56.39277       36.57370       67.05928
C         55.68892       35.36872       67.22221
C         57.65112       36.72206       67.66616
C         56.24287       34.32640       67.97188
C         58.20020       35.67941       68.41543
C         57.49764       34.48177       68.56741
H         54.92462       39.39730       64.70258
H         54.85049       36.55190       64.71232
H         54.83425       37.99152       66.72520
H         56.47166       38.60033       66.32986
H         54.71272       35.23651       66.77235
H         58.20834       37.64464       67.55948
H         55.69834       33.39917       68.09364
H         59.17017       35.80257       68.87885
H         57.92514       33.67582       69.14921
N         57.18256       35.77303       63.60944
C         58.44561       35.39697       62.98196
C         58.84630       36.34081       61.87112
O         59.96827       36.83079       61.87274
C         58.16402       33.99784       62.41644
C         57.19836       33.44783       63.43623
C         56.27880       34.64415       63.66810
H         59.23293       35.34974       63.76779
H         57.59258       34.07006       61.46355
H         59.07453       33.38835       62.23333
H         56.67752       32.51062       63.14901
H         57.77638       33.26354       64.37206
H         55.51100       34.75899       62.87136
H         55.80131       34.50428       64.65737
N         57.94131       36.67625       60.91168
C         58.20057       37.62583       59.83700
C         58.64361       38.95594       60.41892
O         59.70128       39.43946       60.04183
C         56.93072       37.80588       58.97454
C         56.57764       36.52434       58.19440
C         55.28714       36.68302       57.44470
O         55.26459       36.62280       56.22603
O         54.14257       36.86678       58.12801
H         56.99682       36.26671       60.98691
H         59.01338       37.24461       59.17816
H         57.09187       38.62132       58.23491
H         56.08961       38.09712       59.63779
H         56.45986       35.65632       58.87506
H         57.40471       36.30110       57.48548
N         57.90202       39.57724       61.37738
C         58.28631       40.82751       62.00251
H         59.23439       41.23422       61.59157
H         57.48560       41.57989       61.84817
H         58.42151       40.66514       63.09261
H         57.03670       39.12861       61.70605
Ca        52.14445       37.19494       57.12055
O         53.13294       39.36115       55.20739
H         53.52138       38.49046       54.93990
H         53.91083       39.96833       55.28073
O         51.74580       34.74118       55.39758
H         51.19653       35.43956       54.96257
H         52.63706       34.82913       54.98130
O         51.51954       34.83785       59.09743
H         51.06950       34.40853       58.32722
H         50.78232       35.08646       59.70894
O         48.77716       36.95100       58.54970
H         48.58168       37.74034       59.11445
H         47.98401       36.86257       57.96413

Ca 1.0



