%chk=apoCaM-CA-Ng.loop2.water4.frame1474.chk
%nprocshared=20
%mem=10GB
%nosave
#b3lyp/svp scf=(tight,noincore,xqc) Test 
#IOP(5/87=12) Density=Current Pop=(MK,readradii) iop(6/33=2) iop(6/42=6)

apoCaM-CA-Ng.loop2.water4.frame1474 

   -2  1 
C         50.17476       69.08215       80.67916
C         51.49982       69.72619       80.97952
O         52.25142       69.14289       81.74683
H         49.55661       69.65099       79.96214
H         50.36108       68.07897       80.23999
H         49.60205       68.96185       81.62140
N         51.91456       70.89814       80.42067
C         51.13688       71.71511       79.49370
C         49.90592       72.33229       80.15057
O         48.83434       72.22095       79.57069
C         52.02827       72.78083       78.80909
C         52.79753       73.66235       79.74646
O         54.14134       73.64823       79.73593
O         52.22036       74.39820       80.52001
H         52.86933       71.21023       80.65891
H         50.79585       71.08433       78.64165
H         51.40840       73.40782       78.13000
H         52.77058       72.24294       78.17985
N         49.97138       72.99475       81.34478
C         48.82836       73.68093       81.93780
C         49.16719       75.15090       82.15675
O         49.01814       75.63900       83.26821
C         48.44843       72.98219       83.25157
H         50.86121       73.01352       81.86342
H         47.94668       73.63631       81.26242
H         49.29549       73.02575       83.97112
H         47.56221       73.47041       83.71135
H         48.20216       71.91677       83.06008
N         49.64201       75.91606       81.12716
C         50.02930       77.32414       81.27003
C         50.44669       77.93182       79.93060
O         49.89350       78.96222       79.57030
C         51.09618       77.55506       82.38000
C         52.35942       76.75253       82.27404
O         52.66359       75.85498       83.23150
O         53.14429       76.94219       81.36382
H         49.73785       75.46838       80.20273
H         49.13748       77.89957       81.60868
H         50.64489       77.31774       83.36226
H         51.35546       78.63219       82.42758
N         51.37318       77.34499       79.11554
C         51.75329       77.91034       77.83032
C         52.58868       79.16943       77.95357
O         52.73734       79.85920       76.95536
H         51.77913       76.44061       79.37288
H         50.82785       78.11492       77.24889
H         52.35227       77.17550       77.24903
N         53.22494       79.49685       79.11613
C         54.04296       80.69148       79.28922
C         55.52318       80.36420       79.45146
O         56.29415       81.30055       79.61341
C         53.53775       81.47050       80.52086
C         52.12143       81.95220       80.33450
N         51.13828       81.56935       81.18168
O         51.86207       82.71001       79.41173
H         53.15028       78.86719       79.92305
H         53.97577       81.35070       78.39611
H         54.17664       82.36290       80.69313
H         53.61462       80.81856       81.42066
H         51.33430       80.93951       81.97178
H         50.17446       81.91006       81.04997
N         56.00906       79.08867       79.39124
C         57.42749       78.77238       79.51495
C         57.68531       77.85403       80.68956
O         56.74005       77.50392       81.37980
H         55.36543       78.29995       79.23668
H         58.03713       79.69040       79.64856
H         57.75628       78.26650       78.58107
N         58.93011       77.38573       80.99975
C         60.15420       77.71894       80.27972
C         60.66492       76.48740       79.56279
O         60.75812       76.54189       78.34342
C         61.21768       78.33029       81.22736
C         60.76808       79.69343       81.76512
O         61.47881       77.46444       82.30204
H         59.00962       76.73090       81.79361
H         59.96387       78.47796       79.49143
H         62.14937       78.48700       80.63296
H         62.35998       77.72483       82.67812
H         59.83347       79.59855       82.35643
H         61.56020       80.12055       82.41699
H         60.59658       80.39903       80.92406
N         61.00241       75.34132       80.23078
C         61.47623       74.14265       79.53980
C         60.56164       72.95073       79.81810
O         59.99852       72.90445       80.90309
C         62.94066       73.78688       79.93771
C         63.08102       73.35176       81.42405
C         63.88199       74.95738       79.59856
C         64.45212       72.75948       81.75580
H         60.91841       75.31248       81.25635
H         61.48188       74.35169       78.45897
H         63.23062       72.91986       79.31217
H         62.35826       72.54056       81.64556
H         62.86553       74.20454       82.10250
H         64.94295       74.68483       79.76447
H         63.77957       75.23454       78.52819
H         63.64408       75.84629       80.22173
H         64.45734       72.41636       82.81199
H         64.65366       71.88029       81.10667
H         65.26374       73.50256       81.63411
N         60.44480       71.86946       78.98684
C         60.96974       71.76155       77.62844
C         62.14913       70.81676       77.59749
O         62.00050       69.65818       77.95855
C         59.85974       71.26446       76.68220
C         58.66045       72.17170       76.69713
O         57.46146       71.69456       77.08414
O         58.76426       73.33967       76.35851
H         59.91499       71.05736       79.34250
H         61.30502       72.73452       77.23793
H         59.53878       70.24555       76.99364
H         60.25272       71.20054       75.64409
N         63.36711       71.26716       77.17419
C         64.56432       70.43669       77.12068
C         65.63706       70.97404       78.05705
O         65.52069       72.10861       78.49382
C         65.10993       70.42781       75.67741
C         64.29942       69.54271       74.77372
C         64.70665       68.21090       74.58671
C         63.15570       70.01458       74.11058
C         63.98177       67.36012       73.75380
C         62.43474       69.15880       73.26840
C         62.84701       67.83312       73.09237
H         63.45923       72.25292       76.88310
H         64.32218       69.41106       77.44786
H         66.14495       70.04518       75.65540
H         65.20655       71.45673       75.26325
H         65.58570       67.83010       75.09207
H         62.82938       71.03945       74.23705
H         64.30396       66.33525       73.62240
H         61.55693       69.52133       72.75018
H         62.28970       67.17080       72.44340
N         66.74393       70.23410       78.40363
C         67.02979       68.84395       78.05301
C         65.97946       67.86014       78.52227
O         65.57478       67.00835       77.74478
C         68.34065       68.53921       78.78832
C         69.00903       69.89015       78.79880
C         67.83873       70.79577       79.16863
H         67.21190       68.75255       76.96374
H         68.14113       68.28875       79.85544
H         68.92649       67.70793       78.33934
H         69.89161       69.97166       79.46655
H         69.32092       70.12350       77.75405
H         67.58854       70.73101       80.25116
H         68.08673       71.84001       78.88224
N         65.49270       67.92207       79.79603
C         64.57541       66.92294       80.32202
C         65.39377       65.68610       80.68070
O         66.25091       65.81997       81.54380
C         63.84047       67.44484       81.57863
C         62.95574       68.66185       81.25640
C         62.19547       69.11494       82.46916
O         62.85535       69.53325       83.56603
O         60.97457       69.11535       82.46316
H         65.80210       68.68917       80.41188
H         63.78103       66.74436       79.57748
H         64.57315       67.71280       82.37238
H         63.18633       66.63144       81.96587
H         62.23407       68.38577       80.45635
H         63.57629       69.50719       80.89148
N         65.26084       64.45636       80.09988
C         64.34231       64.08337       79.04353
H         63.68142       64.89268       78.70152
H         64.92719       63.73452       78.16662
H         63.70395       63.24785       79.39783
H         65.88853       63.70595       80.42962
Ca        55.20822       74.98893       81.19806
O         55.54843       75.85643       78.21613
H         54.77787       75.49595       77.70989
H         56.34414       75.49616       77.75059
O         56.30428       75.77891       83.89961
H         55.56162       76.00256       84.51469
H         56.84652       76.60579       83.85459
O         57.52373       73.89754       79.86563
H         57.64252       74.03169       80.83986
H         58.03810       74.63579       79.45327
O         55.20335       72.79390       83.26837
H         54.21515       72.78892       83.20430
H         55.48726       71.96662       82.80445

Ca 1.0



