%chk=apoCaM-CA-Ng.loop2.water4.frame1340.chk
%nprocshared=20
%mem=10GB
%nosave
#b3lyp/svp scf=(tight,noincore,xqc) Test 
#IOP(5/87=12) Density=Current Pop=(MK,readradii) iop(6/33=2) iop(6/42=6)

apoCaM-CA-Ng.loop2.water4.frame1340 

   -2  1 
C         53.13757       38.80718      122.78604
C         52.57159       39.91144      121.94442
O         52.88068       41.06324      122.21427
H         53.79516       39.22547      123.57805
H         52.31087       38.25111      123.27497
H         53.73879       38.12167      122.15419
N         51.72585       39.68428      120.90168
C         51.25706       38.37275      120.45447
C         49.74710       38.29355      120.64006
O         49.29472       37.39297      121.33358
C         51.73884       38.06105      119.01300
C         51.33621       39.07154      117.98005
O         51.70762       40.22978      118.07173
O         50.56033       38.72234      116.94301
H         51.37974       40.51778      120.40504
H         51.69568       37.56115      121.07263
H         51.35211       37.05940      118.72152
H         52.84903       38.00735      119.01243
N         48.91655       39.25264      120.13498
C         47.48877       39.32265      120.43493
C         46.62714       39.45514      119.18593
O         45.42919       39.65816      119.33438
C         47.26368       40.54005      121.33931
H         49.32260       40.03254      119.59791
H         47.14538       38.42948      121.00218
H         47.56305       41.47579      120.82036
H         46.19557       40.61711      121.63641
H         47.86765       40.43506      122.26624
N         47.14233       39.34881      117.92698
C         46.33466       39.58273      116.73060
C         46.97789       39.05237      115.45558
O         48.06596       38.49823      115.49443
C         45.95859       41.08845      116.61653
C         47.03504       42.12827      116.89349
O         46.80939       42.97729      117.74195
O         48.19552       42.21871      116.20922
H         48.13134       39.09395      117.81709
H         45.39749       38.98662      116.79976
H         45.14955       41.28192      117.35327
H         45.51629       41.29465      115.62146
N         46.29505       39.11450      114.27409
C         46.85856       38.66103      113.01461
C         47.89400       39.64695      112.52854
O         48.84236       39.92288      113.24776
H         45.32924       39.47500      114.26589
H         46.04754       38.59371      112.25782
H         47.28852       37.64334      113.13543
N         47.77693       40.23174      111.30255
C         48.72093       41.24636      110.84479
C         48.53112       42.53448      111.62791
O         47.56153       42.66132      112.36552
C         48.51021       41.55473      109.34435
C         48.75833       40.34553      108.47912
N         47.78217       39.84962      107.68329
O         49.85938       39.81546      108.48742
H         47.00391       39.94426      110.68221
H         49.75634       40.86560      110.98885
H         49.21446       42.34811      109.01434
H         47.47579       41.93625      109.19036
H         46.84824       40.28401      107.65525
H         47.96201       39.02767      107.08786
N         49.40135       43.56798      111.45895
C         49.16128       44.88795      112.01100
C         49.15054       44.94742      113.52640
O         49.49761       43.96700      114.16890
H         50.22108       43.44127      110.84640
H         48.18254       45.23306      111.61889
H         49.95585       45.57172      111.64747
N         48.75014       46.07282      114.19489
C         48.21541       47.26392      113.53172
C         49.23361       47.89238      112.59786
O         48.95404       47.97825      111.40944
C         47.68596       48.32223      114.53971
C         46.48398       47.81825      115.34265
O         48.69758       48.72221      115.42910
H         48.77547       46.05008      115.22629
H         47.33578       46.95747      112.92125
H         47.32933       49.19340      113.93651
H         48.60738       49.70251      115.55912
H         46.11324       48.63276      116.00147
H         45.66044       47.52374      114.65811
H         46.75640       46.95104      115.97808
N         50.41930       48.37772      113.06350
C         51.40205       49.04722      112.21826
C         52.74080       48.32930      112.37271
O         53.16500       48.15632      113.50712
C         51.48771       50.54727      112.60746
C         50.09874       51.20881      112.38227
C         52.57260       51.25366      111.77085
C         50.01946       52.67141      112.81113
H         50.62809       48.30459      114.06948
H         51.05571       49.02430      111.17418
H         51.76307       50.62646      113.68272
H         49.33177       50.66813      112.97530
H         49.81651       51.13367      111.30814
H         52.67653       52.31576      112.06342
H         53.56134       50.78231      111.94048
H         52.33484       51.19958      110.68718
H         50.69724       53.30985      112.21106
H         48.98394       53.03905      112.64865
H         50.26688       52.76629      113.88887
N         53.47632       47.84458      111.32645
C         53.19537       48.05752      109.90690
C         54.43760       48.50383      109.14969
O         55.54480       48.33017      109.64083
C         52.57840       46.78193      109.29896
C         53.38231       45.54072      109.58967
O         54.53661       45.44177      109.21019
O         52.82846       44.53483      110.29448
H         54.31114       47.28376      111.56223
H         52.48368       48.88330      109.75687
H         52.44659       46.90347      108.20257
H         51.57078       46.64181      109.74782
N         54.30729       49.10671      107.92756
C         55.44359       49.46335      107.07821
C         55.52794       50.97420      106.86216
O         54.49009       51.61866      106.92954
C         55.25549       48.81209      105.69117
C         54.86104       47.35789      105.77223
C         55.72519       46.39497      106.31571
C         53.59331       46.96084      105.30697
C         55.32293       45.05588      106.38998
C         53.19425       45.62682      105.39030
C         54.05780       44.67379      105.93188
H         53.35823       49.29481      107.56902
H         56.36483       49.07265      107.53542
H         56.17023       48.93038      105.07263
H         54.43811       49.36192      105.17190
H         56.70313       46.67987      106.68235
H         52.90597       47.68597      104.88789
H         55.98755       44.31408      106.81209
H         52.21345       45.33535      105.03671
H         53.74405       43.64045      105.99797
N         56.68536       51.61406      106.48419
C         58.02482       51.03771      106.43760
C         58.41236       50.48415      107.79099
O         58.81339       49.33309      107.88765
C         58.93045       52.23310      106.08474
C         58.00307       53.09613      105.26368
C         56.70831       53.00131      106.06634
H         58.06870       50.26812      105.63606
H         59.16342       52.83561      106.99155
H         59.89351       51.95690      105.60453
H         58.35748       54.13229      105.07671
H         57.84867       52.58611      104.28520
H         56.71847       53.64959      106.97053
H         55.85969       53.27065      105.40090
N         58.22331       51.25608      108.89850
C         58.41169       50.77448      110.25641
C         59.88314       50.46661      110.49651
O         60.67023       51.40053      110.42738
C         57.92113       51.83691      111.26840
C         56.40260       52.07922      111.15925
C         55.96350       53.16779      112.09422
O         55.09047       52.90181      113.08345
O         56.38463       54.30493      111.95169
H         57.86729       52.21374      108.76369
H         57.76193       49.89862      110.39825
H         58.47133       52.78873      111.09334
H         58.13814       51.49121      112.30323
H         55.87364       51.13381      111.40586
H         56.10749       52.37787      110.13163
N         60.38053       49.22435      110.78213
C         59.63934       47.97780      110.85955
H         58.56563       48.05407      110.63558
H         60.06663       47.26160      110.12687
H         59.74613       47.54939      111.87722
H         61.39585       49.14656      110.94869
Ca        49.63657       40.52338      115.97107
O         53.34210       39.93978      115.47764
H         53.83038       39.35199      116.10738
H         53.96815       40.68538      115.29824
O         51.93106       43.00870      116.30669
H         52.89336       42.88669      116.10827
H         51.76779       43.97323      116.15391
O         51.11822       38.07841      113.69746
H         50.65044       37.27215      114.03145
H         50.95881       38.07063      112.72005
O         51.77265       41.61961      113.27803
H         51.98978       42.57685      113.40768
H         51.91603       41.46251      112.31117

Ca 1.0



