%chk=apoCaM-CA-Ng.loop2.water4.frame1147.chk
%nprocshared=20
%mem=10GB
%nosave
#b3lyp/svp scf=(tight,noincore,xqc) Test 
#IOP(5/87=12) Density=Current Pop=(MK,readradii) iop(6/33=2) iop(6/42=6)

apoCaM-CA-Ng.loop2.water4.frame1147 

   -2  1 
C         90.99993       52.82833      101.95500
C         90.00161       52.30569      102.95265
O         89.10314       51.58136      102.55123
H         92.01207       52.45345      102.21628
H         90.75049       52.48312      100.92995
H         90.99946       53.93924      101.95341
N         90.05572       52.61982      104.27827
C         91.02959       53.52501      104.87109
C         90.37107       54.80191      105.35299
O         89.17020       54.84328      105.56665
C         91.87121       52.84497      105.97608
C         91.14992       51.83496      106.85284
O         91.61263       50.70657      106.91572
O         90.01761       52.08015      107.55104
H         89.33459       52.22630      104.89800
H         91.75352       53.87314      104.10793
H         92.38996       53.61720      106.58478
H         92.67572       52.27087      105.46077
N         91.13836       55.92813      105.43687
C         90.70671       57.26787      105.81857
C         90.40492       57.44214      107.28794
O         90.30717       58.59513      107.68460
C         89.51059       57.76913      104.99426
H         92.12633       55.84957      105.14850
H         91.57102       57.93828      105.60849
H         89.71772       57.69585      103.90855
H         88.59110       57.19385      105.23378
H         89.30013       58.83297      105.24218
N         90.24369       56.40460      108.16308
C         89.87770       56.64524      109.55599
C         89.91185       55.41539      110.44851
O         90.05815       54.29252      109.99616
C         88.49721       57.36502      109.65417
C         87.28537       56.76405      108.95957
O         87.24796       55.57466      108.31383
O         86.25710       57.42224      108.97489
H         90.38620       55.44409      107.83865
H         90.65684       57.31226      109.98391
H         88.60153       58.37772      109.22318
H         88.23645       57.53303      110.71989
N         89.82865       55.59257      111.79346
C         89.76958       54.50154      112.74393
C         88.37401       53.92137      112.86661
O         88.17900       53.10823      113.75855
H         89.82694       56.55243      112.17040
H         90.01007       54.92100      113.74450
H         90.53564       53.72698      112.51754
N         87.34687       54.29747      112.04368
C         85.96843       53.86934      112.23800
C         85.52309       52.93401      111.13977
O         85.91296       53.11617      109.99495
C         85.01900       55.08740      112.21416
C         85.38109       56.16567      113.20131
N         85.46566       55.90253      114.52446
O         85.58870       57.30045      112.79694
H         87.52008       54.93562      111.25694
H         85.85169       53.35023      113.21436
H         83.98485       54.73821      112.42744
H         85.02098       55.53374      111.19241
H         85.30049       54.95322      114.88666
H         85.70506       56.65341      115.18863
N         84.60213       51.96791      111.40924
C         84.00347       51.16793      110.34989
C         83.01641       50.13349      110.86390
O         82.91999       49.93941      112.06772
H         84.28748       51.85479      112.38495
H         84.80067       50.63165      109.79519
H         83.47583       51.86045      109.66071
N         82.24881       49.38155      110.02051
C         82.20881       49.54395      108.56645
C         81.22538       50.63011      108.14261
O         80.46727       51.13795      108.95726
C         81.73297       48.23182      107.88679
C         82.74275       47.08967      108.08212
O         80.43622       47.90649      108.34776
H         81.65433       48.65454      110.44836
H         83.22660       49.78993      108.18949
H         81.66541       48.37997      106.78753
H         80.41944       46.98435      108.71117
H         82.89524       46.86706      109.15791
H         82.36680       46.17603      107.57333
H         83.71524       47.36595      107.62211
N         81.18095       50.98867      106.82705
C         80.18301       51.86728      106.20665
C         79.69686       51.22563      104.88293
O         80.32932       50.26960      104.45356
C         80.81507       53.27991      105.98227
C         82.14828       53.19332      105.19070
C         81.00282       53.98107      107.34089
C         82.78191       54.54878      104.88005
H         81.91190       50.59386      106.21583
H         79.31189       51.96551      106.88398
H         80.11903       53.91066      105.40718
H         81.96310       52.67663      104.22456
H         82.89485       52.60544      105.76561
H         81.76412       53.46272      107.96004
H         81.30679       55.03826      107.20516
H         80.03999       54.00026      107.89633
H         83.04284       55.09688      105.80619
H         83.71890       54.38926      104.30688
H         82.10131       55.17234      104.27459
N         78.63315       51.65462      104.12576
C         77.63526       52.66220      104.48964
C         76.86859       53.20769      103.27348
O         76.98889       52.68872      102.17211
C         76.63635       52.09625      105.53384
C         75.90531       50.84683      105.09445
O         76.14178       50.30787      104.02430
O         74.97844       50.30803      105.90847
H         78.50557       51.17274      103.22214
H         78.14345       53.53538      104.90769
H         75.87816       52.87173      105.77061
H         77.15811       51.85772      106.47883
N         76.06252       54.30014      103.43081
C         75.24989       54.89598      102.36850
C         75.11259       56.41046      102.60335
O         74.94391       56.79243      103.75449
C         73.86979       54.20652      102.39616
C         72.98776       54.63508      101.25104
C         72.06570       55.68394      101.40913
C         73.10169       54.00213       99.99929
C         71.27666       56.09613      100.32967
C         72.30725       54.41508       98.92516
C         71.39742       55.46264       99.08950
H         75.97753       54.69194      104.38024
H         75.70827       54.69579      101.37774
H         73.36551       54.38932      103.36955
H         74.01403       53.10552      102.32129
H         71.96948       56.19098      102.36086
H         73.80971       53.19557       99.85446
H         70.57457       56.91059      100.45223
H         72.40133       53.92681       97.96361
H         70.78803       55.78489       98.25480
N         75.10049       57.34740      101.59714
C         75.12407       57.07447      100.16955
C         76.49001       56.64792       99.66995
O         76.53297       55.88443       98.71451
C         74.55493       58.35614       99.55446
C         75.04037       59.43671      100.49491
C         74.91715       58.76463      101.86247
H         74.41234       56.28351       99.88903
H         74.75858       58.51008       98.47366
H         73.44796       58.31672       99.68912
H         76.11387       59.60592      100.26904
H         74.49365       60.40403      100.42119
H         75.69012       59.17847      102.54881
H         73.90637       58.90765      102.30192
N         77.63191       56.95979      100.34527
C         78.90274       56.32519      100.02596
C         79.54057       57.03334       98.83538
O         79.86993       58.20042       98.99645
C         79.89288       56.31581      101.22044
C         79.38590       55.61156      102.50118
C         78.60013       56.46957      103.47077
O         78.22343       55.95192      104.65269
O         78.38787       57.65097      103.26054
H         77.56207       57.58025      101.15248
H         78.69292       55.25565       99.84840
H         80.27225       57.32688      101.47822
H         80.76130       55.71939      100.86023
H         80.27400       55.29808      103.07466
H         78.84067       54.68560      102.22791
N         79.74101       56.47645       97.60233
C         79.40671       55.12839       97.18668
H         78.58746       55.17930       96.43927
H         80.29183       54.66304       96.70450
H         79.09247       54.46025       98.00182
H         80.14214       57.08135       96.86813
Ca        88.60580       53.80116      107.95910
O         88.58585       51.34972      110.09026
H         89.24784       50.67479      109.79554
H         88.22218       50.98887      110.93697
O         86.64071       50.67234      107.90538
H         86.84660       49.82152      108.36715
H         85.92637       50.43752      107.26131
O         85.10336       53.97842      107.29871
H         84.82979       54.63657      107.98639
H         85.53023       54.52373      106.59074
O         86.91493       52.20359      105.51128
H         86.91870       53.06327      105.02151
H         86.92830       51.51078      104.80399

Ca 1.0



