%chk=apoCaM-CA-Ng.loop1.water3.frame1168.chk
%nprocshared=20
%mem=10GB
%nosave
#b3lyp/svp scf=(tight,noincore,xqc) Test 
#IOP(5/87=12) Density=Current Pop=(MK,readradii) iop(6/33=2) iop(6/42=6)

apoCaM-CA-Ng.loop1.water3.frame1168 

   0  1 
C        112.86871       36.56763       -1.51886
C        113.35612       37.00293       -0.17133
O        112.80342       36.54515        0.81882
H        111.79964       36.85024       -1.62807
H        113.44674       37.04808       -2.33465
H        112.96350       35.46568       -1.60803
N        114.36810       37.91282       -0.05316
C        114.82609       38.41605        1.23679
C        114.42132       39.86506        1.38947
O        115.23853       40.71571        1.71676
C        116.33221       38.14272        1.45660
C        117.27649       38.81798        0.49036
O        118.60099       38.61871        0.62468
O        116.87134       39.54800       -0.40043
H        114.78619       38.29985       -0.91119
H        114.29723       37.88726        2.05132
H        116.49802       37.04590        1.39545
H        116.60380       38.47036        2.48427
N        113.11814       40.19970        1.18553
C        112.59004       41.53406        1.41987
C        112.73066       41.86340        2.90095
O        113.34379       42.87811        3.19813
C        111.12987       41.69928        0.90744
C        110.92275       41.26092       -0.56254
C        111.79445       42.02245       -1.57624
C        111.67334       41.46686       -3.00708
N        110.31462       41.55723       -3.54199
H        112.47698       39.45683        0.87559
H        113.19419       42.26360        0.83858
H        110.83757       42.76678        1.01541
H        110.41277       41.11712        1.51501
H        109.85200       41.41773       -0.81047
H        111.12438       40.17504       -0.66075
H        112.86446       41.91599       -1.30557
H        111.53100       43.10199       -1.55742
H        112.00882       40.40530       -3.02438
H        112.35915       42.04908       -3.66190
H        110.32418       41.23592       -4.53708
H        109.66661       40.93397       -3.01015
H        109.97685       42.54585       -3.50737
N        112.29296       41.04610        3.91206
C        111.57670       39.77862        3.75187
C        112.46844       38.58924        4.11077
O        113.59162       38.78512        4.55686
C        110.27142       39.83686        4.56874
C        110.57369       39.84330        6.03425
O        111.15104       38.75557        6.56504
O        110.36056       40.82860        6.70798
H        112.51695       41.33801        4.87569
H        111.28537       39.61952        2.70964
H        109.62152       38.96533        4.34901
H        109.71506       40.75678        4.28024
N        112.03825       37.31570        3.88123
C        112.86036       36.12953        4.10173
C        113.10289       35.81150        5.55989
O        112.60227       36.50450        6.41980
H        111.10957       37.17991        3.45430
H        113.83006       36.24276        3.57586
H        112.33567       35.25172        3.66838
N        113.82868       34.70308        5.89256
C        114.04647       34.23251        7.27214
C        114.48706       32.75763        7.26749
O        115.00376       32.29557        6.26193
C        115.11362       35.08425        8.01394
C        114.65085       36.48478        8.28612
O        115.14275       37.41319        7.66590
O        113.67990       36.73187        9.19418
H        114.15792       34.12990        5.10370
H        113.07531       34.29049        7.78835
H        116.02911       35.09609        7.38253
H        115.39963       34.64809        8.99049
N        114.32651       31.92365        8.34388
C        113.69459       32.28189        9.60306
C        112.22230       32.58186        9.45629
O        111.66676       32.40725        8.37888
H        114.68100       30.95725        8.25899
H        114.21504       33.14990       10.04693
H        113.78771       31.43581       10.31843
N        111.51959       33.04580       10.52550
C        110.10229       33.39407       10.44142
C        109.85554       34.55084        9.47458
O        110.78948       35.24696        9.10459
C        109.50454       33.70430       11.83498
C        110.14707       34.92479       12.51328
O        109.66200       32.57605       12.65752
H        112.01675       33.12888       11.42461
H        109.57494       32.49789       10.04214
H        108.41804       33.91514       11.69232
H        108.89938       32.56758       13.29309
H        110.01815       35.83156       11.88792
H        109.65962       35.10629       13.49375
H        111.22993       34.77016       12.69820
N        108.60102       34.74190        8.96903
C        108.22450       35.72021        7.94663
C        108.20277       37.14872        8.48114
O        109.17125       37.58220        9.08758
C        109.10929       35.65777        6.65397
C        109.49983       34.23343        6.18619
C        108.42966       36.42713        5.50213
C        108.33835       33.28387        5.91092
H        107.86349       34.08593        9.26891
H        107.18912       35.45594        7.63240
H        110.07278       36.16691        6.86353
H        110.14160       33.76514        6.95250
H        110.12277       34.31834        5.26785
H        107.44905       35.97356        5.24483
H        108.25492       37.48637        5.77566
H        109.06967       36.41845        4.59630
H        107.68729       33.66820        5.10165
H        108.75143       32.30326        5.59039
H        107.74134       33.12231        6.83133
N        107.17452       37.98343        8.14542
C        107.23230       39.43025        8.36365
C        106.95469       39.86293        9.79890
O        107.06734       41.05101       10.06826
C        106.29085       40.17864        7.37928
C        104.79828       39.90562        7.62283
O        106.62772       39.81997        6.06266
H        106.42697       37.59876        7.54960
H        108.25923       39.76081        8.09845
H        106.46856       41.27214        7.51649
H        106.32022       40.55559        5.47078
H        104.50523       40.21627        8.64725
H        104.19234       40.49342        6.90079
H        104.54933       38.83402        7.48686
N        106.53953       38.99169       10.76103
C        106.17607       39.43609       12.10601
C        107.38664       40.00569       12.83195
O        108.33779       39.26877       13.05004
C        105.55395       38.25632       12.90267
C        105.11105       38.65452       14.31632
O        104.46014       37.71452       12.20303
H        106.41926       37.99801       10.51638
H        105.39322       40.22217       12.01035
H        106.31741       37.45333       13.00168
H        103.78648       38.43529       12.08802
H        104.35169       39.46442       14.27394
H        104.66958       37.77545       14.83120
H        105.97866       38.99685       14.91426
N        107.41324       41.31509       13.23772
C        108.52774       41.92025       13.96996
C        109.78713       41.81920       13.13730
O        110.71315       41.10134       13.49053
C        108.66212       41.31119       15.38205
C        107.39135       41.57733       16.20546
C        107.52213       41.04763       17.63512
C        106.23361       41.30944       18.42723
N        106.36061       40.83915       19.80543
H        106.60800       41.91996       13.01629
H        108.32696       43.00503       14.12332
H        109.52155       41.79741       15.89478
H        108.86068       40.21984       15.33081
H        106.52118       41.09523       15.71431
H        107.20401       42.67343       16.24647
H        108.37370       41.55850       18.13582
H        107.72206       39.95414       17.61084
H        105.38425       40.78386       17.93554
H        106.01312       42.40045       18.43401
H        105.46381       41.01977       20.31185
H        106.55797       39.81227       19.81946
H        107.13153       41.35471       20.28914
N        109.84628       42.51497       11.97061
C        110.89373       42.35510       10.97657
C        110.25024       41.84833        9.69369
O        110.51336       40.69763        9.37745
C        111.73751       43.63064       10.79299
C        112.64703       43.89229       12.00070
C        113.47548       45.12645       11.78069
O        112.87733       46.32302       11.62419
O        114.69363       45.05237       11.74598
H        109.06389       43.14488       11.76154
H        111.60132       41.56042       11.30252
H        111.08883       44.51207       10.64052
H        112.39500       43.49657        9.90459
H        113.32226       43.01797       12.14072
H        112.04210       44.02300       12.92225
N        109.37843       42.55102        8.90113
C        108.98134       43.93455        9.04403
H        108.46602       44.12259        9.99976
H        109.85089       44.60326        8.90578
H        108.26172       44.19210        8.23746
H        108.95816       42.06545        8.09845
Ca       111.97775       38.06458        8.54193
O        111.28433       38.30318       11.79180
H        111.02499       38.10958       12.72753
H        110.55996       38.88407       11.44888
O        113.66350       40.31015        7.32793
H        114.07907       40.70989        6.52476
H        114.42218       39.90558        7.81664
O        113.53124       39.97960       10.45559
H        113.75931       40.87566       10.10099
H        114.40526       39.54688       10.62345

Ca 1.0



