%chk=apoCaM-CA-Ng.loop2.water4.frame1335.chk
%nprocshared=20
%mem=10GB
%nosave
#b3lyp/svp scf=(tight,noincore,xqc) Test 
#IOP(5/87=12) Density=Current Pop=(MK,readradii) iop(6/33=2) iop(6/42=6)

apoCaM-CA-Ng.loop2.water4.frame1335 

   -2  1 
C         66.74572       72.78562       25.58311
C         65.35695       73.37851       25.50077
O         65.20368       74.29811       24.71023
H         67.46151       73.57419       25.89487
H         66.88145       71.93127       26.26279
H         67.03615       72.42754       24.57271
N         64.27185       72.95672       26.22176
C         64.25228       71.89941       27.23198
C         63.80625       72.39873       28.60548
O         63.82860       71.59987       29.53187
C         63.40982       70.69902       26.73533
C         61.95066       70.95762       26.45034
O         61.25412       70.04220       26.04321
O         61.39597       72.16836       26.62507
H         63.38020       73.43304       26.01970
H         65.26071       71.49805       27.40339
H         63.47090       69.88449       27.48924
H         63.87374       70.32584       25.79639
N         63.40695       73.68756       28.83005
C         63.02188       74.19340       30.14570
C         61.53982       74.53089       30.21515
O         61.09909       74.99156       31.25952
C         63.87177       75.42653       30.47001
H         63.36303       74.35544       28.04743
H         63.20998       73.43393       30.93548
H         64.94961       75.15943       30.45184
H         63.68953       76.23128       29.72501
H         63.62710       75.81579       31.48160
N         60.70247       74.29428       29.16429
C         59.27041       74.55855       29.18536
C         58.47739       73.25504       29.09708
O         59.04456       72.20070       28.84449
C         58.91790       75.61609       28.09371
C         59.62146       75.43148       26.75269
O         60.44265       76.25935       26.39075
O         59.40829       74.35217       25.97726
H         61.07990       73.88509       28.30381
H         58.97339       74.98930       30.16711
H         59.27264       76.59337       28.48982
H         57.81794       75.69845       27.96357
N         57.14353       73.26274       29.38914
C         56.27989       72.08387       29.40306
C         55.95520       71.57282       27.98609
O         55.58748       72.68971       27.24958
H         56.71521       74.15759       29.67224
H         55.30917       72.39140       29.85335
H         56.70700       71.28504       30.04679
N         54.84535       70.61211       28.04566
C         54.47212       70.00858       26.74908
C         53.97558       71.04696       25.74604
O         54.53812       71.13940       24.66425
C         53.36760       68.95758       27.01066
C         52.87029       68.29816       25.74863
N         51.56865       68.40028       25.38816
O         53.64617       67.66477       25.04895
H         55.14700       69.83804       28.68447
H         55.35482       69.48111       26.31862
H         52.51830       69.44701       27.53484
H         53.76090       68.16749       27.68691
H         50.89882       68.92971       25.96598
H         51.22557       67.94960       24.52740
N         52.91001       71.84561       26.03572
C         52.33970       72.81638       25.10843
C         53.27459       73.96815       24.76771
O         54.41240       73.96256       25.20868
H         52.45093       71.74003       26.95309
H         51.44378       73.24961       25.59934
H         52.01729       72.29948       24.17950
N         52.87469       75.04632       24.02708
C         51.52979       75.24316       23.48801
C         51.51973       75.55101       21.99069
O         50.42666       75.68722       21.45809
C         50.84788       76.41446       24.23930
C         50.67622       76.11576       25.73210
O         51.60801       77.58577       24.07565
H         53.55537       75.81294       23.90413
H         50.91013       74.33442       23.62941
H         49.82994       76.55948       23.80608
H         50.99630       78.35344       24.22221
H         50.16578       76.96778       26.22834
H         50.04980       75.20940       25.86973
H         51.65909       75.96056       26.22479
N         52.65909       75.71629       21.25154
C         52.64900       76.12920       19.84761
C         53.34216       75.06886       19.00522
O         54.47546       74.73701       19.32514
C         53.37910       77.49616       19.68460
C         52.78738       78.61055       20.58894
C         53.39601       77.94784       18.20954
C         51.32477       78.97613       20.31122
H         53.58018       75.59229       21.69426
H         51.61334       76.27690       19.50221
H         54.43843       77.36624       20.00118
H         53.40034       79.52986       20.46378
H         52.87522       78.30177       21.65191
H         52.36556       78.05927       17.81592
H         53.93008       78.91580       18.10627
H         53.92315       77.20943       17.57001
H         50.65361       78.11091       20.47348
H         51.01300       79.78108       21.00919
H         51.19235       79.35420       19.27736
N         52.79140       74.50209       17.89059
C         51.47349       74.81242       17.33229
C         51.45990       74.64139       15.81513
O         52.48111       74.29660       15.23567
C         50.39858       73.96503       18.05022
C         50.68023       72.48924       17.98026
O         50.85959       71.78696       19.11516
O         50.75004       71.91984       16.90440
H         53.37005       73.80325       17.39814
H         51.23829       75.88772       17.45957
H         49.39146       74.16791       17.63112
H         50.36832       74.25975       19.11957
N         50.31697       74.87805       15.10381
C         50.23317       74.74166       13.64950
C         49.57181       75.95736       12.99026
O         48.90094       76.70219       13.69225
C         49.50651       73.42632       13.28262
C         48.29361       73.14759       14.14841
C         47.17383       73.99762       14.16555
C         48.30273       72.01832       14.98815
C         46.10132       73.73170       15.02510
C         47.23126       71.75586       15.84169
C         46.13253       72.61486       15.86502
H         49.45861       75.12719       15.61630
H         51.25051       74.65253       13.26364
H         50.24140       72.60919       13.45463
H         49.24739       73.39447       12.20454
H         47.12864       74.86925       13.52989
H         49.14741       71.34174       14.99237
H         45.24708       74.39529       15.04573
H         47.25913       70.88884       16.48924
H         45.30617       72.41311       16.53373
N         49.68654       76.23833       11.64329
C         50.57905       75.59249       10.67684
C         52.00362       75.54955       11.18734
O         52.60598       74.48533       11.20271
C         50.49336       76.49767        9.43777
C         49.07028       76.99018        9.51783
C         48.93986       77.30624       11.00665
H         50.19648       74.57571       10.44109
H         51.13245       77.40078        9.56789
H         50.78378       76.00263        8.48635
H         48.81558       77.83230        8.83979
H         48.40677       76.12657        9.27960
H         49.40047       78.28101       11.28045
H         47.86064       77.29678       11.27367
N         52.53470       76.66229       11.76964
C         53.75868       76.64266       12.55903
C         54.96304       76.35255       11.68074
O         55.20716       77.11703       10.75837
C         53.94879       77.98075       13.31010
C         52.80172       78.25514       14.31121
C         52.96377       79.55125       15.05949
O         53.92771       80.27742       14.87283
O         52.01884       79.92314       15.94378
H         51.98057       77.53029       11.74170
H         53.64470       75.86993       13.34446
H         54.01586       78.81464       12.57691
H         54.90152       77.93324       13.88329
H         52.75043       77.42628       15.05021
H         51.82832       78.30619       13.78317
N         55.78598       75.28317       11.88562
C         55.61029       74.31928       12.95260
H         54.63450       73.80025       12.84752
H         56.41502       73.55540       12.90907
H         55.66480       74.82586       13.94009
H         56.58975       75.15098       11.25245
Ca        57.60694       73.14814       26.40900
O         57.15847       72.74214       23.20655
H         57.64993       73.58115       23.02092
H         56.50624       72.99009       23.90747
O         57.61181       69.77452       24.33167
H         58.25904       69.03180       24.23177
H         56.74740       69.39101       24.03862
O         60.13891       71.67477       23.45549
H         60.07507       70.92623       22.81039
H         60.06866       72.48964       22.89748
O         58.40824       69.41105       27.32111
H         58.58219       69.33377       28.29266
H         57.90118       68.59160       27.09350

Ca 1.0



