%chk=apoCaM-CA-Ng.loop1.water1.frame1274.chk
%nprocshared=20
%mem=10GB
%nosave
#b3lyp/svp scf=(tight,noincore,xqc) Test 
#IOP(5/87=12) Density=Current Pop=(MK,readradii) iop(6/33=2) iop(6/42=6)

apoCaM-CA-Ng.loop1.water1.frame1274 

   0  1 
C         64.35661       31.86659       16.26445
C         65.56913       32.71461       16.02581
O         65.61117       33.82395       16.53860
H         63.45784       32.39790       15.88434
H         64.43489       30.88910       15.74544
H         64.23754       31.68796       17.35332
N         66.59006       32.26986       15.23530
C         67.76221       33.08114       14.92586
C         67.73965       33.41825       13.44994
O         68.71939       33.21499       12.74445
C         69.05538       32.34112       15.33098
C         69.15780       32.04775       16.80431
O         70.13487       31.45148       17.22715
O         68.19901       32.43578       17.66757
H         66.51559       31.33878       14.79700
H         67.72391       34.05258       15.46496
H         69.93493       32.95960       15.04770
H         69.10713       31.37892       14.77433
N         66.60184       33.93103       12.91215
C         66.48376       34.31080       11.51499
C         67.31508       35.55435       11.23092
O         68.15810       35.46578       10.34955
C         65.00056       34.40836       11.08119
C         64.35288       33.00876       11.19729
C         62.91137       32.94610       10.68755
C         62.38950       31.50090       10.79145
N         61.02100       31.38763       10.29221
H         65.77364       34.02108       13.51995
H         66.89534       33.48884       10.88389
H         64.96302       34.72112       10.01454
H         64.43500       35.15092       11.68071
H         64.36895       32.67059       12.25587
H         64.95426       32.29249       10.59366
H         62.88170       33.26937        9.62426
H         62.26983       33.62383       11.29105
H         62.42086       31.16739       11.85317
H         63.04635       30.82512       10.19770
H         60.98236       31.66682        9.28516
H         60.71005       30.39244       10.37794
H         60.38152       31.99261       10.85603
N         67.23055       36.73395       11.91848
C         66.34282       37.04062       13.03520
C         67.11994       37.21557       14.33815
O         68.29216       37.55022       14.31562
C         65.42378       38.24671       12.70873
C         65.99329       39.29456       11.76831
O         67.09379       40.03452       12.01703
O         65.42829       39.46937       10.69950
H         67.89446       37.47549       11.64501
H         65.65782       36.20533       13.24481
H         65.02451       38.70351       13.63972
H         64.54401       37.82968       12.16731
N         66.49887       36.93489       15.52528
C         67.08835       36.99276       16.86217
C         68.00076       38.17204       17.10346
O         67.61019       39.28490       16.80036
H         65.52505       36.59573       15.48617
H         67.57047       36.02633       17.12183
H         66.24313       37.11050       17.57358
N         69.23332       38.00366       17.66831
C         70.15059       39.11511       17.93056
C         70.55957       39.18057       19.39277
O         70.69791       38.13432       20.01026
C         71.38494       38.98249       17.02095
C         70.90676       39.09537       15.60567
O         71.04877       38.17283       14.81799
O         70.19065       40.18293       15.26463
H         69.54717       37.04837       17.90064
H         69.66790       40.07596       17.67534
H         71.90134       38.01294       17.19922
H         72.10337       39.80587       17.21823
N         70.86262       40.36023       20.02095
C         70.79587       41.68027       19.40219
C         69.37631       42.15518       19.19196
O         68.44449       41.46531       19.58608
H         71.20803       40.31609       20.99266
H         71.36413       41.67913       18.44942
H         71.27489       42.42152       20.07797
N         69.13775       43.36175       18.59364
C         67.78244       43.89253       18.44137
C         66.92019       42.98168       17.58291
O         67.44062       42.07381       16.95231
C         67.75941       45.35155       17.89171
C         68.25326       45.50129       16.44086
O         68.45992       46.21639       18.75278
H         69.94615       43.92022       18.28248
H         67.33417       43.92003       19.45933
H         66.70396       45.69806       17.88622
H         69.43084       46.12415       18.56974
H         69.31837       45.21689       16.35302
H         67.64727       44.87881       15.74836
H         68.15499       46.56051       16.12081
N         65.57022       43.17441       17.54426
C         64.61760       42.37437       16.78063
C         64.87998       42.54688       15.29376
O         65.88504       42.05858       14.79637
C         64.60424       40.87575       17.22401
C         64.38137       40.76134       18.75613
C         63.54661       40.07734       16.43692
C         64.44921       39.32930       19.29538
H         65.17530       43.93953       18.11180
H         63.60759       42.78606       17.00328
H         65.58248       40.43363       16.98881
H         63.40037       41.20467       19.03053
H         65.17888       41.33120       19.27982
H         63.72928       40.15052       15.34497
H         63.59659       38.99705       16.68343
H         62.52666       40.45549       16.65728
H         65.42984       38.86992       19.05235
H         64.33550       39.34667       20.40005
H         63.63174       38.70028       18.88938
N         64.00269       43.25240       14.52558
C         64.17246       43.45127       13.09098
C         64.38362       44.92007       12.72149
O         64.51749       45.18771       11.53644
C         62.98042       42.82291       12.32279
C         61.63169       43.48096       12.63232
O         62.88832       41.45439       12.62619
H         63.17863       43.67139       14.98042
H         65.07562       42.91825       12.73668
H         63.15041       42.94644       11.22664
H         63.57833       40.99091       12.08418
H         60.83888       43.00274       12.01869
H         61.35540       43.35371       13.69889
H         61.65713       44.56302       12.38701
N         64.42909       45.92558       13.65084
C         64.61097       47.33175       13.27631
C         65.96603       47.56399       12.60533
O         66.99534       47.39965       13.24353
C         64.38174       48.28496       14.48224
C         65.35100       48.09457       15.66298
O         64.45519       49.61311       14.03001
H         64.28783       45.69228       14.64198
H         63.80461       47.57574       12.54830
H         63.34880       48.07794       14.85011
H         63.96983       50.17275       14.69102
H         65.31576       47.06107       16.06140
H         66.39312       48.34083       15.38248
H         65.06197       48.78004       16.48729
N         66.02215       47.89645       11.28060
C         67.24945       48.05553       10.49806
C         68.20102       46.89035       10.73686
O         69.36626       47.09535       11.05047
C         67.92811       49.42497       10.72516
C         66.99552       50.61002       10.42129
C         67.78384       51.93131       10.41465
C         66.90034       53.18312       10.26595
N         66.10723       53.18162        9.03540
H         65.13480       47.95193       10.75768
H         66.95690       48.02744        9.42401
H         68.79752       49.47748       10.03157
H         68.30367       49.51275       11.76809
H         66.19125       50.64266       11.18799
H         66.53600       50.46920        9.41950
H         68.52495       51.90433        9.58449
H         68.34112       52.03174       11.37109
H         67.56838       54.07381       10.26355
H         66.22223       53.26771       11.14301
H         65.39196       52.42047        9.06231
H         65.60245       54.09457        8.95980
H         66.72598       53.06723        8.20046
N         67.72126       45.62165       10.66994
C         68.50814       44.43589       10.97786
C         67.57125       43.26074       11.23025
O         67.55922       42.80527       12.36474
C         69.59862       44.18864        9.90805
C         70.31409       42.83126       10.02774
C         70.96236       42.61645       11.36268
O         70.64996       41.65084       12.03986
O         71.90531       43.46736       11.80882
H         66.71847       45.51338       10.47430
H         69.02834       44.60938       11.94953
H         70.35008       45.00452        9.96647
H         69.15943       44.24758        8.89477
H         71.09570       42.77265        9.24145
H         69.58373       42.01402        9.83781
N         66.72639       42.71445       10.30707
C         66.63767       43.08757        8.91346
H         66.37696       44.15507        8.79205
H         67.58356       42.84904        8.39314
H         65.84186       42.48750        8.42391
H         66.09538       41.96399       10.62029
Ca        68.63160       40.16038       13.64949
O         70.10960       43.16218       14.95202
H         70.74828       43.51183       15.62192
H         70.66646       42.58471       14.37626

Ca 1.0



