%chk=apoCaM-CA-Ng.loop1.water3.frame950.chk
%nprocshared=20
%mem=10GB
%nosave
#b3lyp/svp scf=(tight,noincore,xqc) Test 
#IOP(5/87=12) Density=Current Pop=(MK,readradii) iop(6/33=2) iop(6/42=6)

apoCaM-CA-Ng.loop1.water3.frame950 

   0  1 
C         92.22497       74.45524       45.25286
C         90.85298       73.90591       44.99793
O         90.63111       73.30423       43.95706
H         92.90722       74.22535       44.40750
H         92.16627       75.55698       45.37832
H         92.63867       74.00620       46.18049
N         89.87711       74.08008       45.93009
C         88.50761       73.59298       45.77403
C         87.50659       74.74597       45.80102
O         87.90790       75.87075       46.06919
C         88.19680       72.49374       46.81330
C         88.35786       72.85834       48.27063
O         87.95234       72.07347       49.11304
O         88.93032       74.00794       48.68501
H         90.13134       74.59608       46.78314
H         88.39046       73.12221       44.77384
H         88.83963       71.60849       46.61634
H         87.14306       72.17734       46.65672
N         86.19515       74.54827       45.44208
C         85.23862       75.65050       45.30176
C         83.97990       75.46167       46.14823
O         82.88127       75.68798       45.65741
C         84.92446       75.88942       43.79951
C         84.22490       74.70640       43.09309
C         83.95093       75.03107       41.61629
C         83.13778       73.94052       40.89344
N         83.83249       72.65287       40.84441
H         85.89003       73.59843       45.18431
H         85.70356       76.58907       45.67119
H         85.88164       76.10226       43.27416
H         84.28351       76.79416       43.70883
H         83.25541       74.48823       43.58456
H         84.86535       73.80445       43.15641
H         84.91334       75.19515       41.08429
H         83.35904       75.97114       41.56199
H         82.94924       74.28556       39.85243
H         82.15114       73.81312       41.39214
H         83.93642       72.25161       41.80316
H         83.26377       71.98461       40.27546
H         84.77043       72.76424       40.39599
N         84.06580       75.08846       47.45578
C         82.88075       75.00021       48.32000
C         82.23983       76.37747       48.50268
O         82.95389       77.36705       48.42469
C         83.13598       74.34972       49.71327
C         84.29206       74.94645       50.46737
O         84.14195       75.57722       51.50073
O         85.51256       74.70630       49.97686
H         84.99839       74.85186       47.80277
H         82.17195       74.33967       47.78114
H         83.35920       73.26900       49.58057
H         82.20872       74.42197       50.32110
N         80.89605       76.55660       48.69815
C         79.91385       75.48735       48.78246
C         79.05398       75.47145       47.54663
O         79.60454       75.47838       46.45347
H         80.53912       77.52071       48.75337
H         79.31554       75.58983       49.71295
H         80.38409       74.49331       48.84382
N         77.69878       75.34520       47.63303
C         76.87192       75.16220       46.44106
C         76.64478       76.45790       45.68256
O         76.24757       76.38748       44.52791
C         75.52306       74.51171       46.79248
C         75.72134       73.16497       47.43396
O         75.26713       72.93645       48.68052
O         76.29402       72.27268       46.82785
H         77.27121       75.25006       48.56729
H         77.40593       74.45761       45.76237
H         74.92123       74.36881       45.86879
H         74.95858       75.17767       47.48112
N         76.84638       77.67332       46.26542
C         76.69214       78.93766       45.56108
C         77.96810       79.75222       45.58309
O         77.95342       80.85978       45.06449
H         77.11013       77.71794       47.26099
H         75.89257       79.52367       46.06310
H         76.39313       78.78626       44.50204
N         79.10037       79.29002       46.18856
C         80.32850       80.05668       46.32394
C         80.52941       80.36079       47.80339
O         79.73822       79.90918       48.62380
C         81.50021       79.23089       45.72105
C         81.28373       78.93505       44.23440
O         82.71866       79.91575       45.85723
H         79.10855       78.35863       46.62610
H         80.25115       81.03198       45.79440
H         81.54094       78.25560       46.26295
H         83.39767       79.25912       46.16484
H         81.23359       79.88284       43.65694
H         82.12962       78.32736       43.84767
H         80.34684       78.36173       44.07378
N         81.56004       81.14184       48.22731
C         81.81022       81.40435       49.64153
C         80.71089       82.21985       50.33243
O         80.80988       82.35574       51.54230
C         83.23078       81.99901       49.88465
C         83.43506       83.36654       49.18321
C         84.29868       80.95986       49.47676
C         84.76659       84.03045       49.53823
H         82.20962       81.51077       47.52293
H         81.81038       80.41904       50.16346
H         83.34203       82.15152       50.98157
H         82.62436       84.05687       49.49904
H         83.38890       83.26120       48.08002
H         84.12629       80.00486       50.01983
H         84.27093       80.75093       48.38742
H         85.31813       81.29434       49.75110
H         84.83947       84.18305       50.63562
H         85.62824       83.42464       49.19172
H         84.83080       85.01779       49.03525
N         79.60894       82.71697       49.67828
C         78.47027       83.28339       50.40547
C         78.07242       84.67051       49.94012
O         77.77792       84.87200       48.77208
C         77.24452       82.33262       50.34419
C         76.65727       82.10224       48.94536
O         77.59357       81.08729       50.88951
H         79.52049       82.60783       48.66052
H         78.70518       83.35108       51.48861
H         76.42247       82.78120       50.95411
H         77.61355       81.20167       51.87603
H         77.40546       81.64942       48.26411
H         75.78958       81.41422       49.02398
H         76.27318       83.04170       48.50116
N         77.94582       85.66221       50.86449
C         77.25375       86.91438       50.59665
C         77.64756       87.92632       51.65651
O         78.23128       88.94282       51.29922
C         75.71804       86.63644       50.51436
C         74.86860       87.90373       50.30959
O         75.27554       85.88765       51.62642
H         78.22123       85.46453       51.83761
H         77.59426       87.32932       49.62059
H         75.53574       85.99795       49.62321
H         74.82849       86.48472       52.28023
H         74.96750       88.59004       51.17784
H         75.17526       88.43453       49.38590
H         73.79742       87.61772       50.21603
N         77.37987       87.71616       52.97524
C         77.78905       88.63489       54.02875
C         78.43649       87.89972       55.18936
O         78.15154       86.72588       55.39982
C         76.57143       89.43674       54.53630
C         75.46105       88.53862       55.11060
C         74.26786       89.35396       55.60785
C         73.17937       88.41660       56.14901
N         72.02621       89.17237       56.63165
H         76.85384       86.87373       53.24585
H         78.51995       89.37327       53.62877
H         76.15740       90.02465       53.68763
H         76.90903       90.15367       55.31720
H         75.86060       87.94413       55.95989
H         75.10202       87.84452       54.32296
H         73.85378       89.95412       54.76821
H         74.60127       90.04340       56.41416
H         73.59359       87.80716       56.98344
H         72.85094       87.72464       55.34090
H         71.61302       89.73298       55.85147
H         71.30600       88.50278       56.98698
H         72.31480       89.80656       57.41148
N         79.24402       88.57599       56.05015
C         79.70332       88.03664       57.32561
C         80.37995       86.66799       57.19719
O         79.87808       85.74538       57.82356
C         80.55546       89.08730       58.07376
C         80.91257       88.65421       59.50163
C         81.72235       89.71505       60.19056
O         82.81461       90.03796       59.75044
O         81.25032       90.31115       61.30193
H         79.48273       89.55422       55.81737
H         78.79252       87.88542       57.95057
H         79.96702       90.02992       58.14196
H         81.47465       89.32314       57.51005
H         81.50025       87.71218       59.48770
H         79.97397       88.47972       60.07214
N         81.47268       86.39547       56.42661
C         82.16660       87.34481       55.58833
H         82.98222       86.82336       55.04281
H         81.47386       87.77898       54.83970
H         82.64348       88.13364       56.19469
H         81.82159       85.42342       56.41625
Ca        87.66645       75.23058       50.05719
O         87.25563       77.48090       51.90010
H         87.20103       77.69362       52.86504
H         86.79238       78.23174       51.45122
O         86.13435       77.57473       48.57692
H         85.67777       78.01518       47.81713
H         85.50786       77.67869       49.33640
O         88.09594       73.89344       52.72176
H         87.18542       74.28068       52.76566
H         88.02446       73.16752       52.05180

Ca 1.0



