%chk=apoCaM-CA-Ng.loop3.water3.frame867.chk
%nprocshared=20
%mem=10GB
%nosave
#b3lyp/svp scf=(tight,noincore,xqc) Test 
#IOP(5/87=12) Density=Current Pop=(MK,readradii) iop(6/33=2) iop(6/42=6)

apoCaM-CA-Ng.loop3.water3.frame867 

   0  1 
C         64.76982       59.84344        3.69865
C         64.95985       61.32855        3.61828
O         65.88388       61.79119        2.96611
H         63.77763       59.58477        3.26663
H         65.55437       59.30833        3.12538
H         64.79503       59.51482        4.75812
N         64.06908       62.14135        4.24050
C         64.06639       63.59441        4.10817
C         65.32816       64.22862        4.71487
O         65.86887       63.67515        5.66177
C         62.73269       64.10993        4.71073
C         62.30680       65.47665        4.28891
O         61.20170       65.88505        4.60841
O         63.08695       66.23716        3.51344
H         63.30377       61.68617        4.76482
H         64.03884       63.81120        3.02652
H         62.74663       64.02560        5.81830
H         61.91913       63.45684        4.32571
N         65.84196       65.39941        4.22057
C         67.01683       66.09590        4.75601
C         66.59966       67.29132        5.62294
O         67.44004       67.81761        6.33840
C         67.94244       66.49264        3.56730
C         69.12058       67.42051        3.92777
C         69.98299       67.82080        2.71592
C         70.82793       66.66455        2.16250
N         71.67805       67.12166        1.06193
H         65.35957       65.85468        3.43777
H         67.56967       65.42006        5.44460
H         67.33870       67.03486        2.81063
H         68.30915       65.55747        3.09543
H         69.75895       66.96484        4.71368
H         68.69864       68.37079        4.31731
H         70.68226       68.61899        3.04917
H         69.33757       68.24735        1.91548
H         70.17501       65.84370        1.79882
H         71.47390       66.26962        2.97787
H         71.08803       67.45976        0.26726
H         72.30748       67.89262        1.38493
H         72.26854       66.32481        0.73089
N         65.31376       67.73734        5.65086
C         64.80244       68.77801        6.53473
C         63.72101       68.17624        7.42868
O         63.85514       68.23885        8.64366
C         64.34402       70.02823        5.72368
C         63.65442       69.77861        4.39027
O         64.15998       70.20746        3.36623
O         62.51156       69.07550        4.31055
H         64.63381       67.30634        5.02218
H         65.59297       69.14826        7.22782
H         65.26902       70.59919        5.48362
H         63.72688       70.68027        6.37914
N         62.65442       67.52562        6.89517
C         61.61177       66.85807        7.65034
C         60.22173       67.34840        7.28617
O         59.27177       66.75612        7.77249
H         62.59802       67.44534        5.88382
H         61.76045       66.95717        8.74666
H         61.66292       65.77600        7.39951
N         60.01537       68.42074        6.45797
C         58.68437       68.91800        6.10477
C         58.50341       68.99594        4.59598
O         59.46091       68.83395        3.86888
C         58.52105       70.33488        6.68663
C         58.71794       70.35563        8.18016
N         57.88905       69.66679        8.99664
O         59.63771       71.00389        8.65749
H         60.82101       68.94491        6.09773
H         57.89952       68.24645        6.51164
H         57.51454       70.74046        6.45130
H         59.27959       71.00069        6.21354
H         57.10513       69.12045        8.61205
H         58.02988       69.68324       10.01726
N         57.28491       69.28734        4.05746
C         57.06885       69.53931        2.63712
C         57.45596       68.38478        1.73951
O         56.91955       67.29845        1.90745
H         56.47642       69.38412        4.68856
H         57.63338       70.44975        2.34616
H         55.98883       69.74844        2.47574
N         58.37308       68.56409        0.73736
C         58.72669       67.51497       -0.21545
C         60.00150       66.76002        0.24328
O         59.99423       66.58882        1.62698
C         58.97393       68.12232       -1.62224
C         57.79939       68.85173       -2.22434
C         56.60562       68.17163       -2.51709
C         57.90980       70.21450       -2.55148
C         55.54197       68.84464       -3.12863
C         56.84610       70.88454       -3.16156
C         55.66078       70.20396       -3.45516
O         54.64938       70.86305       -4.05590
H         58.81584       69.48821        0.62813
H         57.89502       66.77693       -0.27005
H         59.24408       67.33497       -2.35243
H         59.84435       68.81054       -1.54771
H         56.50345       67.11858       -2.28764
H         58.82396       70.75825       -2.34753
H         54.63031       68.30708       -3.35696
H         56.94807       71.93238       -3.41535
H         53.81659       70.42826       -4.28813
N         60.06822       65.45871       -0.45717
C         61.10624       64.47090       -0.08783
C         62.47812       65.10832        0.04570
O         62.68052       65.89274        0.95664
C         60.73453       63.63246        1.17281
C         61.72622       62.45478        1.40980
C         59.28798       63.11335        1.10695
C         61.75635       61.37512        0.31991
H         60.20314       65.65250       -1.47347
H         61.12428       63.75167       -0.93362
H         60.79407       64.28785        2.06648
H         61.46718       61.95718        2.36943
H         62.75246       62.85374        1.50650
H         58.57355       63.96192        1.06341
H         59.12452       62.47745        0.21311
H         59.05228       62.52516        2.02003
H         62.07924       61.78685       -0.65691
H         62.48808       60.59028        0.60591
H         60.76657       60.88799        0.20857
N         63.47068       64.82699       -0.84172
C         64.79801       65.43531       -0.72125
C         65.65430       65.42015       -1.98013
O         66.68953       66.07425       -1.95303
C         65.57869       64.77883        0.42887
O         65.82776       63.42539        0.14234
H         63.22405       64.20447       -1.61446
H         64.64493       66.51620       -0.51060
H         65.02035       64.88998        1.37629
H         66.55267       65.28763        0.58934
H         65.18504       62.88462        0.67035
N         65.32919       64.73443       -3.11338
C         66.14738       64.80031       -4.31469
C         66.11471       66.20123       -4.91510
O         65.24858       66.97801       -4.53477
C         65.60297       63.80085       -5.33175
H         64.50165       64.13310       -3.14634
H         67.18775       64.52342       -4.03589
H         64.54014       64.02365       -5.56617
H         66.16527       63.86701       -6.26339
H         65.67599       62.76854       -4.92637
N         67.02119       66.64627       -5.83604
C         68.22786       65.93551       -6.25015
C         68.60329       66.31603       -7.67777
O         68.70069       67.50705       -7.94172
C         69.37332       66.35401       -5.32284
H         66.93975       67.63783       -6.11360
H         68.12469       64.84389       -6.13344
H         70.30956       65.83026       -5.61273
H         69.54403       67.45128       -5.37114
H         69.13342       66.08315       -4.27277
N         68.91144       65.41488       -8.65740
C         68.91664       63.96350       -8.51233
C         67.50673       63.41185       -8.47656
O         67.26951       62.44763       -7.76190
C         69.70408       63.32038       -9.67368
C         69.90999       61.80898       -9.47082
C         70.77438       61.23255      -10.55282
O         70.41359       61.27352      -11.71807
O         71.95251       60.65956      -10.23954
H         69.22904       65.80454       -9.56001
H         69.47787       63.69252       -7.58984
H         70.71046       63.79484       -9.70490
H         69.19301       63.51688      -10.64229
H         68.93575       61.27633       -9.46917
H         70.40627       61.63866       -8.48968
N         66.52418       63.95471       -9.25013
C         65.16482       63.45847       -9.23999
H         64.53753       64.06112       -9.93133
H         65.14263       62.39859       -9.56843
H         64.73401       63.54063       -8.22017
H         66.73954       64.75730       -9.86039
Ca        61.52039       68.12204        2.47216
O         62.50885       68.77145       -0.35301
H         63.25941       69.39790       -0.50732
H         62.29209       68.41473       -1.25052
O         60.90393       70.89198        1.39397
H         61.78081       71.35090        1.38517
H         60.35298       71.41295        2.03059
O         65.01279       68.13262        1.57003
H         65.77714       68.17883        0.94321
H         65.42156       68.25063        2.46274

Ca 1.0



