%chk=apoCaM-CA-Ng.loop4.water5.frame648.chk
%nprocshared=20
%mem=10GB
%nosave
#b3lyp/svp scf=(tight,noincore,xqc) Test 
#IOP(5/87=12) Density=Current Pop=(MK,readradii) iop(6/33=2) iop(6/42=6)

apoCaM-CA-Ng.loop4.water5.frame648 

   -3  1 
C        -20.92370       70.86206       16.37076
C        -21.10690       72.29988       15.98390
O        -22.23047       72.77676       16.01216
H        -20.22401       70.79671       17.23063
H        -21.89192       70.40442       16.66532
H        -20.50569       70.29121       15.51796
N        -20.02162       73.03524       15.59734
C        -19.97352       74.45999       15.24674
C        -21.20949       75.26025       15.64847
O        -21.82550       75.90717       14.81088
C        -19.64480       74.61575       13.74431
C        -18.34572       73.95703       13.36962
O        -18.32707       73.06437       12.53716
O        -17.19436       74.35696       13.94259
H        -19.12034       72.53664       15.54773
H        -19.14829       74.91622       15.83709
H        -19.56185       75.69433       13.48869
H        -20.47332       74.17582       13.14474
N        -21.61788       75.26199       16.95036
C        -22.77824       76.02287       17.41123
C        -22.46215       77.51659       17.41992
O        -21.28786       77.86060       17.43585
C        -23.23194       75.56688       18.84104
C        -22.14653       75.82417       19.92483
C        -23.68759       74.09570       18.80769
C        -22.63693       75.56548       21.34943
H        -21.10105       74.66526       17.61123
H        -23.60990       75.81415       16.70627
H        -24.11678       76.16126       19.13238
H        -21.84517       76.89245       19.89190
H        -21.24279       75.20732       19.74419
H        -22.84315       73.41579       18.57494
H        -24.12805       73.78978       19.77712
H        -24.47818       73.96119       18.03853
H        -21.83024       75.82560       22.06681
H        -23.52249       76.19899       21.57018
H        -22.89503       74.49914       21.50371
N        -23.42076       78.48748       17.48667
C        -24.85079       78.27798       17.27347
C        -25.06815       77.94564       15.81454
O        -25.66487       76.91896       15.51804
C        -25.65084       79.52841       17.67765
C        -25.49907       79.79245       19.15342
O        -25.02663       80.84685       19.54605
O        -25.88126       78.86096       20.04977
H        -23.09605       79.46083       17.60643
H        -25.24514       77.45645       17.90088
H        -26.73048       79.36066       17.47072
H        -25.31513       80.41211       17.09204
N        -24.52632       78.73646       14.84234
C        -24.55873       78.36342       13.44159
C        -25.93059       78.47281       12.83321
O        -26.82759       79.05120       13.43137
H        -23.98120       79.56964       15.11080
H        -24.18310       77.32043       13.35351
H        -23.87980       79.01650       12.85226
N        -26.14984       77.90501       11.61457
C        -27.41630       77.96452       10.89295
C        -28.59257       77.60585       11.78450
O        -29.49838       78.42069       11.89864
C        -27.35879       77.11980        9.59290
C        -27.15397       75.63663        9.78577
O        -27.96179       74.84730        9.32363
O        -26.05963       75.16463       10.41365
H        -25.36193       77.39931       11.18297
H        -27.56929       79.01833       10.56704
H        -26.52137       77.49630        8.96720
H        -28.30125       77.28142        9.02445
N        -28.62282       76.44381       12.49310
C        -29.69668       76.10716       13.41464
C        -30.42182       74.84233       13.02590
O        -31.31204       74.45318       13.76664
H        -27.83515       75.78391       12.41326
H        -30.45324       76.91872       13.47997
H        -29.25875       75.97562       14.42748
N        -30.10906       74.14309       11.89249
C        -30.77887       72.91677       11.47705
C        -30.56640       71.79021       12.48070
O        -31.32472       70.82929       12.44945
C        -32.27385       73.18694       11.15091
C        -32.46747       74.18640        9.98766
C        -32.08224       73.64556        8.62467
N        -32.22353       74.42454        7.52732
O        -31.66771       72.50272        8.49601
H        -29.35924       74.47922       11.28141
H        -30.30075       72.55409       10.54386
H        -32.78125       73.59053       12.04965
H        -32.79797       72.24410       10.88279
H        -31.90028       75.11988       10.19585
H        -33.54532       74.44928        9.93309
H        -32.57940       75.38814        7.60727
H        -31.98151       74.06136        6.59297
N        -29.49247       71.78931       13.33091
C        -29.18827       70.68824       14.24313
C        -27.83983       70.03251       13.95273
O        -27.58628       68.98819       14.53224
C        -29.21411       71.16123       15.72527
C        -28.14548       72.23338       16.02300
C        -30.60057       71.68077       16.11864
H        -28.85278       72.59565       13.31863
H        -29.94992       69.88557       14.12429
H        -28.99774       70.28193       16.37244
H        -28.32457       73.16113       15.44096
H        -28.15938       72.49729       17.10107
H        -27.12870       71.85570       15.78561
H        -31.36452       70.89143       15.95672
H        -30.61058       71.95893       17.19422
H        -30.87303       72.57404       15.52170
N        -26.90075       70.61076       13.14066
C        -25.56761       70.04524       12.94668
C        -25.27876       69.87618       11.46148
O        -26.03794       70.35576       10.63597
C        -24.55749       70.98967       13.63472
C        -23.12900       70.51303       13.59089
N        -22.16914       71.26811       13.00647
O        -22.83296       69.44266       14.10050
H        -27.08975       71.51572       12.69511
H        -25.50235       69.04347       13.42332
H        -24.84074       71.08703       14.70583
H        -24.63722       71.99753       13.17234
H        -22.39722       72.17836       12.58121
H        -21.19077       70.94616       12.98464
N        -24.19889       69.14154       11.05845
C        -23.88694       68.92689        9.64334
C        -22.90455       67.76296        9.47662
O        -22.44671       67.22922       10.47229
C        -23.29719       70.23482        9.05471
C        -23.46193       70.33416        7.56096
C        -22.36177       70.27336        6.69049
C        -24.74965       70.52147        7.03106
C        -22.55530       70.38154        5.30777
C        -24.93815       70.64639        5.65438
C        -23.84541       70.57170        4.78664
O        -24.04782       70.68664        3.45873
H        -23.64439       68.67982       11.78663
H        -24.83483       68.63795        9.13987
H        -22.23294       70.31827        9.37095
H        -23.81267       71.12843        9.46797
H        -21.36110       70.12908        7.07835
H        -25.60742       70.58889        7.68948
H        -21.70352       70.32034        4.64255
H        -25.93595       70.80280        5.26358
H        -23.32275       70.63753        2.82036
N        -22.54666       67.29822        8.24008
C        -21.60268       66.19601        8.07420
C        -20.40072       66.66744        7.27009
O        -20.52346       66.77313        6.05829
C        -22.28618       64.99336        7.39356
C        -23.45593       64.45351        8.23103
C        -24.10870       63.28360        7.55403
O        -24.13827       62.08233        8.16165
O        -24.62751       63.41791        6.45695
H        -22.95697       67.71905        7.39738
H        -21.25847       65.83076        9.05114
H        -21.53877       64.17955        7.25933
H        -22.66149       65.29812        6.39140
H        -24.22101       65.24531        8.37917
H        -23.07690       64.13757        9.22759
N        -19.21161       67.04079        7.83756
C        -18.95279       67.14029        9.27199
C        -18.89599       65.78301        9.94935
O        -18.12121       64.93283        9.53249
C        -17.64106       67.91626        9.53245
C        -17.45364       68.18320       11.03585
C        -16.31577       69.11627       11.31756
O        -16.57435       70.28540       11.93429
O        -15.16937       68.81617       11.02481
H        -18.47552       67.37544        7.19439
H        -19.75968       67.76346        9.71729
H        -17.72023       68.89794        9.01375
H        -16.76182       67.37261        9.12010
H        -17.28738       67.22982       11.58172
H        -18.38003       68.65418       11.43125
N        -19.67243       65.54397       11.04495
C        -19.67290       64.30002       11.78335
H        -20.70085       63.88048       11.78958
H        -18.98348       63.54808       11.34810
H        -19.36376       64.49977       12.83154
H        -20.28728       66.29164       11.39621
Ca       -14.99174       71.72905       12.63096
O        -12.50835       72.06173       11.08194
H        -12.95203       71.20689       10.84820
H        -11.81559       71.80957       11.73991
O        -14.99391       69.52708       14.90107
H        -15.01099       68.63690       14.46723
H        -14.10372       69.57759       15.33119
O        -18.14075       70.40128       14.28789
H        -18.80665       70.27930       13.56521
H        -18.05048       69.50430       14.69606
O        -15.60602       74.24680       10.89277
H        -15.05097       74.64773       11.60772
H        -14.97970       73.67120       10.38573
O        -13.51570       73.41875       14.73748
H        -12.63193       73.36402       14.29371
H        -13.66357       74.38666       14.87998

Ca 1.0



