%chk=apoCaM-CA-Ng.loop2.water3.frame857.chk
%nprocshared=20
%mem=10GB
%nosave
#b3lyp/svp scf=(tight,noincore,xqc) Test 
#IOP(5/87=12) Density=Current Pop=(MK,readradii) iop(6/33=2) iop(6/42=6)

apoCaM-CA-Ng.loop2.water3.frame857 

   -2  1 
C         47.50631       65.73425      -15.90915
C         46.76935       66.75550      -16.72189
O         46.11389       66.39435      -17.68951
H         48.59041       65.97029      -15.89901
H         47.11954       65.74712      -14.86791
H         47.36093       64.71605      -16.32883
N         46.82534       68.07162      -16.37175
C         46.10742       69.11710      -17.09702
C         44.58550       69.01250      -16.91120
O         43.87065       69.79614      -17.52004
C         46.63003       70.50047      -16.64465
C         46.11143       71.62953      -17.49258
O         46.34253       71.65389      -18.69150
O         45.40761       72.62997      -16.93034
H         47.42450       68.33510      -15.57318
H         46.35714       69.00837      -18.17655
H         47.73881       70.51134      -16.73368
H         46.36696       70.66966      -15.57758
N         44.01971       68.06622      -16.10110
C         42.58632       67.89641      -15.90042
C         42.28347       67.91438      -14.40580
O         42.98793       67.22131      -13.68346
C         42.15704       66.54510      -16.47270
H         44.62010       67.40152      -15.59796
H         42.02800       68.65747      -16.46775
H         42.69397       65.70946      -15.97553
H         41.06290       66.40751      -16.32858
H         42.37170       66.51264      -17.56201
N         41.25871       68.60055      -13.81972
C         40.22533       69.38620      -14.48849
C         40.23099       70.82173      -13.99041
O         41.02629       71.15926      -13.12670
C         38.86367       68.67355      -14.31886
C         38.53101       68.32400      -12.89537
O         38.37753       69.28696      -11.97405
O         38.40248       67.15455      -12.57018
H         41.17251       68.50910      -12.79445
H         40.38824       69.45678      -15.57372
H         38.91269       67.72353      -14.89667
H         38.04307       69.28312      -14.75058
N         39.41381       71.74404      -14.57410
C         39.42527       73.16442      -14.25772
C         38.01669       73.68521      -14.07252
O         37.56095       74.40097      -14.95326
H         38.80732       71.44000      -15.35133
H         39.85278       73.67653      -15.14807
H         40.07606       73.42153      -13.39878
N         37.21784       73.37858      -13.01062
C         37.62206       72.61945      -11.83346
C         38.52905       73.47893      -10.95434
O         38.08613       74.51777      -10.48378
C         36.34367       72.20920      -11.06290
C         36.54441       71.33792       -9.85472
N         35.47003       70.98751       -9.11228
O         37.65433       70.94273       -9.54042
H         36.24442       73.72284      -13.05209
H         38.12907       71.69475      -12.16583
H         35.67806       71.64913      -11.75655
H         35.81085       73.12921      -10.73879
H         34.52681       71.31179       -9.36876
H         35.57142       70.39863       -8.27759
N         39.82458       73.12583      -10.72414
C         40.76692       73.96115       -9.99066
C         40.68229       73.84870       -8.47922
O         41.45673       74.52614       -7.81850
H         40.18945       72.28323      -11.18035
H         40.66327       75.01738      -10.32134
H         41.79680       73.63693      -10.25552
N         39.82718       72.98985       -7.85690
C         39.79533       72.77484       -6.41003
C         40.18062       71.33397       -6.09144
O         40.42182       70.55782       -7.00673
C         38.38875       73.12663       -5.85474
C         38.11073       74.62652       -5.95558
O         37.38564       72.43695       -6.55303
H         39.19127       72.42331       -8.42833
H         40.54352       73.41305       -5.89067
H         38.32388       72.88437       -4.76972
H         37.43287       71.49392       -6.25836
H         37.10789       74.85034       -5.53196
H         38.86742       75.19325       -5.37138
H         38.13531       74.96691       -7.01169
N         40.25760       70.90921       -4.79590
C         40.59065       69.54099       -4.41011
C         39.33778       68.90914       -3.83270
O         38.77625       69.41423       -2.87014
C         41.80154       69.51418       -3.43728
C         42.08800       68.10108       -2.85310
C         43.05470       70.08281       -4.13000
C         42.44583       67.01859       -3.87837
H         40.03658       71.57585       -4.04044
H         40.88709       68.95513       -5.30662
H         41.56528       70.16942       -2.56958
H         41.19737       67.75784       -2.28423
H         42.92627       68.17770       -2.12641
H         43.32482       69.48212       -5.02455
H         42.87964       71.12669       -4.46400
H         43.91678       70.08632       -3.43004
H         41.63096       66.87275       -4.61251
H         43.38040       67.26713       -4.41927
H         42.60395       66.05505       -3.34826
N         38.82328       67.81144       -4.44758
C         37.54417       67.18927       -4.15701
C         37.69627       65.72477       -3.77424
O         36.67715       65.09387       -3.53274
C         36.67296       67.29243       -5.42202
C         36.55370       68.71796       -5.86710
O         35.94848       69.63006       -5.08237
O         37.04477       69.05951       -6.92933
H         39.34679       67.42127       -5.22908
H         37.03222       67.71835       -3.32225
H         35.65661       66.87969       -5.24679
H         37.15187       66.70145       -6.23556
N         38.92186       65.12397       -3.65065
C         39.08098       63.76767       -3.14699
C         40.09408       62.94981       -3.95882
O         41.26645       63.29498       -3.93663
C         39.53969       63.89168       -1.68018
C         39.83697       62.57145       -1.01808
C         41.11218       62.33971       -0.47451
C         38.85682       61.56960       -0.92556
C         41.40182       61.12639        0.15162
C         39.15392       60.35274       -0.30504
C         40.42440       60.13225        0.23481
H         39.77841       65.67443       -3.78763
H         38.10310       63.25002       -3.13349
H         38.74238       64.41029       -1.10387
H         40.44489       64.53920       -1.64423
H         41.88186       63.10030       -0.52912
H         37.86704       61.72676       -1.33426
H         42.38466       60.95940        0.57265
H         38.39806       59.58148       -0.24027
H         40.65181       59.19234        0.71940
N         39.74025       61.79951       -4.62463
C         40.69923       60.81947       -5.13677
C         41.47177       61.23006       -6.38045
O         42.29995       60.44359       -6.82031
C         39.83672       59.57215       -5.36415
C         38.51170       60.17436       -5.77221
C         38.38016       61.32468       -4.77790
H         41.45205       60.57078       -4.35650
H         40.26327       58.80946       -6.05040
H         39.66451       59.08671       -4.37561
H         38.63932       60.59837       -6.79465
H         37.64793       59.47604       -5.77924
H         37.69822       62.09297       -5.20438
H         38.00946       60.97562       -3.78968
N         41.30384       62.43697       -6.97984
C         42.13031       62.89325       -8.09864
C         43.60300       62.88043       -7.72508
O         44.39005       62.29710       -8.45818
C         41.64973       64.27285       -8.58990
C         41.73529       65.40028       -7.54963
C         40.78319       66.48094       -7.94262
O         40.93045       67.20032       -9.06268
O         39.77871       66.64629       -7.28030
H         40.56946       63.05794       -6.61633
H         41.98399       62.20189       -8.96009
H         40.58201       64.11759       -8.86181
H         42.18487       64.58601       -9.51388
H         42.77232       65.77930       -7.42383
H         41.39668       65.03550       -6.55921
N         44.04041       63.44173       -6.56399
C         45.42831       63.38660       -6.16087
H         46.05947       63.92737       -6.89649
H         45.55124       63.85887       -5.16315
H         45.76151       62.32822       -6.09187
H         43.36829       63.88749       -5.92363
Ca        39.12086       68.50892       -9.37963
O         41.16418       70.32570       -9.82849
H         42.03138       70.78972       -9.73175
H         41.18675       69.92803      -10.73457
O         35.94859       67.64605       -9.23295
H         35.54485       66.77074       -9.45721
H         35.54153       68.27933       -9.87523
O         38.18848       65.48723       -9.52177
H         38.35645       64.58817       -9.89861
H         37.92585       66.03586      -10.30138

Ca 1.0



