%chk=apoCaM-CA-Ng.loop4.water3.frame49.chk
%nprocshared=20
%mem=10GB
%nosave
#b3lyp/svp scf=(tight,noincore,xqc) Test 
#IOP(5/87=12) Density=Current Pop=(MK,readradii) iop(6/33=2) iop(6/42=6)

apoCaM-CA-Ng.loop4.water3.frame49 

   -3  1 
C         46.96535       49.38789       47.04089
C         45.86152       50.06364       46.28913
O         45.59449       51.21397       46.58439
H         47.89921       49.97704       46.91321
H         46.70923       49.34951       48.12014
H         47.14129       48.35805       46.67009
N         45.20241       49.42883       45.27675
C         44.17594       50.05484       44.45009
C         44.69753       51.29014       43.75418
O         44.16861       52.36440       43.97662
C         42.79114       50.22295       45.14367
C         42.65472       50.75697       46.55803
O         43.06326       51.97122       46.99156
O         42.08663       50.04409       47.37069
H         45.48794       48.46924       45.02986
H         43.94245       49.36469       43.60602
H         42.35366       49.19805       45.17677
H         42.12806       50.80569       44.46707
N         45.72738       51.16784       42.85761
C         46.26473       52.20645       41.96950
C         45.32901       52.46078       40.78547
O         45.73416       52.24173       39.65210
C         46.66805       53.51512       42.71154
C         47.33003       54.55493       41.76271
C         47.57937       53.21525       43.91340
C         48.64480       54.10495       41.11119
H         46.16305       50.23616       42.77049
H         47.19329       51.77837       41.53289
H         45.75327       54.00246       43.10812
H         47.53288       55.48311       42.33960
H         46.61681       54.82283       40.95377
H         47.85648       54.15981       44.42647
H         47.05364       52.57489       44.65049
H         48.50323       52.68800       43.60035
H         48.49711       53.21774       40.46320
H         49.03274       54.92177       40.46840
H         49.41587       53.87936       41.87559
N         44.05540       52.88992       40.97564
C         43.08056       53.10074       39.92039
C         43.37498       54.34225       39.07693
O         43.42910       54.17973       37.86639
C         41.65234       53.16336       40.51751
C         41.24900       51.89502       41.24090
O         42.00410       50.93715       41.32122
O         40.02907       51.81629       41.80409
H         43.72106       53.02268       41.92662
H         43.07187       52.20671       39.25356
H         40.92144       53.32336       39.69558
H         41.57116       54.00512       41.23224
N         43.52653       55.61861       39.56120
C         43.61652       56.02061       40.95751
C         42.41713       56.82501       41.39759
O         41.33442       56.55039       40.89979
H         43.62431       56.37959       38.87089
H         44.55864       56.58953       41.09297
H         43.67122       55.16312       41.63261
N         42.45534       57.76884       42.38943
C         43.64953       58.27733       43.08228
C         44.47972       57.18292       43.74895
O         43.96872       56.08404       43.90679
C         43.21728       59.34920       44.12657
C         42.36435       58.80386       45.25253
O         41.27500       58.30007       45.02905
O         42.79021       58.90670       46.52604
H         41.54611       58.19204       42.62923
H         44.27770       58.75775       42.30738
H         42.65201       60.15341       43.61085
H         44.09478       59.83005       44.58275
N         45.76748       57.35668       44.18445
C         46.60210       58.55151       44.10817
C         47.07871       58.90177       42.71737
O         46.70416       58.25555       41.74936
H         46.21647       56.54654       44.62878
H         47.53204       58.33947       44.68131
H         46.13623       59.41585       44.60578
N         48.00831       59.89361       42.58144
C         48.66374       60.23665       41.32275
C         50.12271       59.78493       41.33362
O         50.79349       59.97019       40.32668
C         48.64912       61.76475       41.10556
C         47.25830       62.40262       41.15296
C         47.38829       63.89557       40.96855
N         47.05224       64.75003       41.96351
O         47.82095       64.33779       39.91420
H         48.32853       60.38022       43.43423
H         48.15661       59.72931       40.47250
H         49.12083       61.99380       40.12318
H         49.26543       62.23753       41.90446
H         46.79654       62.18633       42.13998
H         46.60391       61.98309       40.35920
H         46.70208       64.40082       42.86730
H         47.16011       65.76753       41.83665
N         50.68778       59.20349       42.43462
C         52.08523       58.79635       42.51879
C         52.83614       59.56417       43.60573
O         54.02821       59.32383       43.73935
C         52.19382       57.26030       42.73645
C         51.69065       56.50217       41.50069
C         51.44758       56.77756       43.99370
H         50.11705       59.04623       43.27390
H         52.61942       59.03453       41.57145
H         53.26998       57.00287       42.85508
H         52.27892       56.80147       40.60619
H         51.81951       55.40807       41.64275
H         50.61819       56.71649       41.31044
H         51.80913       57.31567       44.89479
H         50.35135       56.92776       43.89896
H         51.62162       55.69166       44.14396
N         52.24276       60.52677       44.38075
C         52.98466       61.32808       45.35037
C         52.43826       61.23030       46.77134
O         53.23082       60.91846       47.65097
C         53.14922       62.79479       44.87342
C         51.92490       63.61286       44.52598
N         52.08153       64.90525       44.15855
O         50.80372       63.13531       44.55074
H         51.24801       60.74479       44.24785
H         54.03774       60.97019       45.41558
H         53.78028       62.78069       43.95791
H         53.71782       63.33871       45.66072
H         53.01886       65.33298       44.12744
H         51.26436       65.48339       43.91324
N         51.14317       61.52287       47.10026
C         50.69520       61.64185       48.48824
C         49.60999       60.64665       48.85310
O         49.03840       60.00259       47.98473
C         50.13373       63.06477       48.71186
C         51.14562       64.15660       48.47022
C         50.95877       65.08455       47.43090
C         52.27028       64.27625       49.30144
C         51.88376       66.11271       47.22679
C         53.19087       65.30890       49.09932
C         52.99982       66.23139       48.06029
O         53.87612       67.23574       47.85760
H         50.45911       61.72153       46.36117
H         51.54133       61.46057       49.18555
H         49.75549       63.18223       49.74973
H         49.26506       63.19739       48.02729
H         50.09813       65.01540       46.77691
H         52.42633       63.57858       50.11426
H         51.72953       66.82141       46.42247
H         54.04836       65.39417       49.75435
H         54.65433       67.36074       48.41924
N         49.27652       60.50745       50.17290
C         48.17505       59.71660       50.71983
C         48.25998       58.21047       50.48566
O         47.36984       57.52511       50.97378
C         46.81532       60.26317       50.22166
C         46.60781       61.76039       50.51458
C         46.63907       62.06780       51.98633
O         47.46531       62.84739       52.43337
O         45.74882       61.49276       52.81756
H         49.81840       61.05345       50.86138
H         48.19497       59.84633       51.82582
H         45.99041       59.69747       50.70897
H         46.72863       60.10370       49.12643
H         45.61761       62.06755       50.11640
H         47.38331       62.35493       49.98656
N         49.26303       57.60743       49.78206
C         49.29795       56.16821       49.52565
C         50.53839       55.50647       50.11549
O         50.62673       54.28879       50.03425
C         49.28324       55.92223       48.00097
C         48.05290       56.46717       47.25241
C         46.80079       55.65942       47.47296
O         46.27198       55.59928       48.57073
O         46.26699       54.99898       46.42256
H         50.02575       58.17394       49.38881
H         48.42337       55.66223       49.98744
H         49.37399       54.83620       47.77607
H         50.18164       56.42809       47.58256
H         48.29118       56.39986       46.16909
H         47.87746       57.53758       47.48940
N         51.54613       56.21497       50.70389
C         52.72738       55.56115       51.22673
H         53.43782       56.31773       51.62232
H         52.44683       54.86836       52.04787
H         53.23510       54.99088       50.41877
H         51.50392       57.24022       50.77305
Ca        44.43807       53.66843       46.38473
O         43.12750       56.04848       47.60313
H         42.62677       56.10691       46.75112
H         42.43821       56.15820       48.30492
O         44.28734       52.97854       49.42951
H         45.21272       53.23380       49.18796
H         43.76827       53.81818       49.35095
O         41.72978       54.39135       44.67654
H         41.26488       53.51754       44.67407
H         41.00358       55.06343       44.63781

Ca 1.0



