%chk=apoCaM-CA-Ng.loop1.water3.frame457.chk
%nprocshared=20
%mem=10GB
%nosave
#b3lyp/svp scf=(tight,noincore,xqc) Test 
#IOP(5/87=12) Density=Current Pop=(MK,readradii) iop(6/33=2) iop(6/42=6)

apoCaM-CA-Ng.loop1.water3.frame457 

   0  1 
C         75.21224       75.29198       63.28480
C         74.16954       76.16595       62.64920
O         73.21767       75.64460       62.08670
H         76.01441       75.89674       63.76009
H         74.74163       74.66295       64.06910
H         75.67388       74.63894       62.51622
N         74.27789       77.52073       62.71841
C         73.28350       78.43712       62.17084
C         73.30496       78.50454       60.64180
O         72.55758       79.30347       60.11550
C         73.50775       79.86863       62.72921
C         73.34670       79.95283       64.22647
O         72.36953       80.71650       64.75283
O         74.10571       79.35637       64.97285
H         75.08236       77.91323       63.23046
H         72.26808       78.12467       62.50546
H         72.74839       80.54878       62.29050
H         74.51114       80.24721       62.43767
N         74.12224       77.74718       59.85271
C         74.23573       77.95197       58.40595
C         73.77101       76.73796       57.61348
O         74.12429       75.63620       58.00590
C         75.71092       78.23387       58.06344
C         76.19118       79.58039       58.62053
C         77.65096       79.82241       58.22255
C         78.15476       81.17878       58.72660
N         79.55936       81.37291       58.36726
H         74.73302       77.03718       60.27602
H         73.64810       78.82261       58.08765
H         75.83758       78.26466       56.96389
H         76.34857       77.40615       58.44470
H         76.09929       79.59033       59.72819
H         75.55791       80.39486       58.20282
H         77.74247       79.79574       57.11363
H         78.28047       79.01310       58.65248
H         78.04981       81.22819       59.83291
H         77.54274       81.99298       58.27722
H         79.87897       82.30397       58.71883
H         80.14681       80.62639       58.80559
H         79.67386       81.34456       57.32783
N         73.07993       76.81633       56.42293
C         72.62657       78.02105       55.71485
C         73.76447       79.02357       55.49255
O         73.74119       80.09871       56.07023
C         71.36735       78.64381       56.35922
C         70.15130       77.75885       56.29475
O         68.97702       78.22190       56.76364
O         70.20213       76.64203       55.80420
H         72.90088       75.92325       55.93617
H         72.26737       77.72629       54.70550
H         71.09319       79.53718       55.76475
H         71.54780       78.93924       57.40943
N         74.80165       78.76470       54.64712
C         74.81256       77.60533       53.78032
C         76.01260       77.52838       52.85964
O         76.95272       78.29878       53.01925
H         75.55226       79.47038       54.57318
H         73.91399       77.70381       53.13484
H         74.76082       76.66670       54.37126
N         76.05231       76.65631       51.81222
C         74.94496       75.76582       51.45397
C         74.21514       76.33021       50.24889
O         74.66397       77.30746       49.66845
C         75.40410       74.30094       51.29580
C         76.41048       74.06740       50.19988
O         76.13437       73.33146       49.26650
O         77.63965       74.61303       50.26720
H         76.86257       76.70883       51.17954
H         74.18903       75.74361       52.25987
H         74.50646       73.67475       51.09739
H         75.84244       73.95299       52.25606
N         73.01347       75.80501       49.87085
C         72.20974       76.38193       48.80623
C         71.62928       77.75450       49.13446
O         70.99727       78.31048       48.25010
H         72.64904       74.97379       50.35676
H         71.34877       75.70998       48.59822
H         72.82536       76.43969       47.88199
N         71.79498       78.36892       50.34999
C         71.24959       79.69027       50.68173
C         71.90153       80.22970       51.95647
O         71.81573       79.60705       53.00281
C         69.69529       79.70213       50.81154
C         69.15405       78.68010       51.81410
O         69.08444       79.45739       49.57297
H         72.35945       77.90013       51.07013
H         71.51951       80.39292       49.86303
H         69.37531       80.71146       51.16619
H         69.15940       80.29407       49.04281
H         68.04632       78.75201       51.85568
H         69.43137       77.65562       51.49384
H         69.53377       78.85589       52.83795
N         72.60033       81.39903       51.91324
C         73.33369       81.97199       53.04681
C         72.43133       82.60161       54.13023
O         72.97208       83.23777       55.02283
C         74.40418       82.99702       52.53274
C         73.77239       84.28871       51.94448
C         75.36652       82.30818       51.53552
C         74.80906       85.32635       51.50508
H         72.67312       81.86427       50.99857
H         73.93122       81.16607       53.52230
H         75.02037       83.29628       53.41033
H         73.14654       84.76597       52.72815
H         73.12013       84.06025       51.07708
H         76.21969       82.96679       51.27818
H         75.79592       81.38851       51.98672
H         74.85607       82.02878       50.59058
H         75.48719       85.58082       52.34710
H         75.40740       84.95685       50.64717
H         74.29069       86.25040       51.17378
N         71.06801       82.49234       54.11358
C         70.15018       83.22080       55.00743
C         70.32200       83.02718       56.52054
O         69.65731       83.74552       57.25454
C         68.67594       82.88019       54.64369
C         68.34000       81.39486       54.89501
O         68.44274       83.19579       53.29567
H         70.64364       81.93163       53.36686
H         70.32171       84.30334       54.81785
H         68.00955       83.50677       55.28207
H         67.45791       83.24596       53.17899
H         67.27653       81.19811       54.64650
H         68.96717       80.72357       54.27507
H         68.49458       81.12409       55.95907
N         71.13965       82.08707       57.06674
C         71.30481       81.84294       58.50564
C         69.99199       81.39264       59.17981
O         68.94682       81.43419       58.54784
C         71.93232       83.07041       59.22481
C         73.18840       83.57604       58.50359
O         72.28217       82.71899       60.53846
H         71.68614       81.49627       56.43432
H         72.03025       81.01260       58.58283
H         71.18292       83.89353       59.24596
H         72.35984       83.56156       61.05747
H         73.61772       84.43921       59.05480
H         73.95451       82.77467       58.43471
H         72.93541       83.93009       57.48471
N         69.98260       80.90757       60.46079
C         68.77232       80.48874       61.17161
C         68.58775       78.97122       61.17697
O         67.58979       78.51844       61.72240
C         68.80366       81.01599       62.62635
C         68.75478       82.54821       62.72011
C         68.76227       82.99779       64.19116
C         68.60092       84.51884       64.31963
N         68.60280       84.92899       65.72487
H         70.87320       80.79523       60.95727
H         67.86782       80.89181       60.66550
H         69.71579       80.63271       63.13731
H         67.91563       80.62513       63.17095
H         67.81762       82.90023       62.23592
H         69.62331       82.99716       62.19108
H         69.71757       82.68336       64.66692
H         67.92049       82.51010       64.73060
H         67.63794       84.82618       63.85363
H         69.43050       85.03203       63.78542
H         68.47502       85.96537       65.78076
H         67.81756       84.46604       66.23839
H         69.51331       84.67606       66.17308
N         69.45567       78.12348       60.55418
C         69.23364       76.68214       60.45989
C         69.21206       76.02614       61.82722
O         70.20275       76.08760       62.54228
C         70.32481       76.04688       59.56800
C         70.22493       74.52721       59.33584
C         68.91728       74.08269       58.73194
O         67.88925       74.13812       59.38595
O         68.86737       73.58460       57.48061
H         70.27286       78.51687       60.07407
H         68.25573       76.53051       59.95522
H         71.32573       76.25979       60.00327
H         70.28206       76.54115       58.58148
H         70.39150       73.97384       60.28459
H         71.05176       74.25775       58.64503
N         68.10444       75.34864       62.24001
C         68.04661       74.64923       63.50401
H         67.05591       74.15794       63.61703
H         68.83175       73.86366       63.53608
H         68.19204       75.36045       64.34308
H         67.27373       75.30886       61.63065
Ca        70.64261       73.57540       56.07929
O         66.82645       75.81543       55.99848
H         66.42962       75.82726       56.90515
H         67.79516       75.69363       56.15674
O         66.92855       73.32703       53.97880
H         66.47837       73.77958       53.22163
H         66.91446       72.36690       53.73795
O         68.77444       75.56387       53.03034
H         68.54373       75.40999       52.07952
H         68.08399       76.19639       53.35275

Ca 1.0



