%chk=apoCaM-CA-Ng.loop1.water3.frame1459.chk
%nprocshared=20
%mem=10GB
%nosave
#b3lyp/svp scf=(tight,noincore,xqc) Test 
#IOP(5/87=12) Density=Current Pop=(MK,readradii) iop(6/33=2) iop(6/42=6)

apoCaM-CA-Ng.loop1.water3.frame1459 

   0  1 
C         39.93836       73.90799       82.35576
C         39.80696       75.17166       81.55463
O         40.75484       75.55598       80.88313
H         39.95781       74.14434       83.44120
H         39.06940       73.24975       82.14648
H         40.86614       73.35947       82.08725
N         38.62251       75.85058       81.55760
C         38.34777       77.03147       80.73274
C         38.78420       78.34143       81.40253
O         38.08016       79.33872       81.31151
C         36.84880       77.04612       80.33516
C         35.88886       77.13696       81.50385
O         36.32923       77.23502       82.77524
O         34.68742       77.11188       81.29366
H         37.84059       75.39110       82.04617
H         38.92175       76.93384       79.78276
H         36.62942       76.10433       79.78649
H         36.65103       77.89568       79.64690
N         39.94635       78.39889       82.10365
C         40.47741       79.58975       82.75660
C         40.87395       80.62706       81.71834
O         40.40130       81.74857       81.84427
C         41.65039       79.19672       83.68625
C         41.16755       78.29191       84.85177
C         42.36570       77.59888       85.52026
C         42.00593       76.34738       86.34429
N         41.26607       76.62739       87.57217
H         40.48828       77.53745       82.20117
H         39.70361       80.04033       83.41921
H         42.16548       80.08874       84.10135
H         42.39376       78.63911       83.08780
H         40.51420       77.49572       84.44279
H         40.56205       78.87377       85.58504
H         42.96869       78.32690       86.10482
H         43.00612       77.20056       84.70545
H         42.96043       75.84570       86.61573
H         41.42481       75.64042       85.70906
H         41.80485       77.28836       88.17638
H         40.31861       77.01041       87.35723
H         41.15151       75.72477       88.09134
N         41.67866       80.38915       80.63833
C         42.33709       79.13118       80.26261
C         41.77326       78.58532       78.95825
O         40.83192       79.14771       78.41694
C         43.85407       79.36301       80.16957
C         44.15637       80.49194       79.27312
O         43.90558       80.40348       77.96834
O         44.60349       81.51256       79.74607
H         41.81696       81.19008       79.99937
H         42.19265       78.33626       81.00165
H         44.40800       78.47993       79.79443
H         44.25698       79.60674       81.17482
N         42.29028       77.43793       78.42964
C         41.80017       76.79625       77.22274
C         42.21123       77.51581       75.90764
O         41.78204       78.83738       75.88882
H         43.03167       76.94693       78.94901
H         40.69995       76.65028       77.30708
H         42.24553       75.78183       77.17526
N         41.66528       76.77063       74.75177
C         41.70795       77.40995       73.41270
C         41.63159       76.32197       72.33545
O         40.99340       75.30673       72.57074
C         40.50756       78.39859       73.19484
C         40.79531       79.83743       73.50237
O         39.82022       80.75899       73.39940
O         41.92161       80.19921       73.76769
H         40.72819       76.34108       74.94349
H         42.68446       77.91433       73.28640
H         39.62278       78.05625       73.77586
H         40.20987       78.43245       72.12581
N         42.18478       76.46881       71.08852
C         43.02081       77.58543       70.68900
C         44.38588       77.46713       71.30970
O         44.69716       76.46452       71.93921
H         42.02167       75.73583       70.38230
H         42.53966       78.54338       70.98614
H         43.15167       77.60705       69.58462
N         45.25078       78.50107       71.19560
C         46.51843       78.54345       71.90775
C         46.26904       78.44991       73.41495
O         45.35754       79.09488       73.91050
C         47.31577       79.80654       71.50356
C         48.64978       79.85900       72.22594
O         46.61946       80.99226       71.77911
H         44.95505       79.30619       70.62505
H         47.14505       77.67948       71.59292
H         47.54357       79.75668       70.41429
H         45.96315       81.15013       71.05697
H         49.24249       78.93409       72.06101
H         49.20670       80.72849       71.83433
H         48.47408       79.98293       73.31091
N         47.06869       77.65634       74.19166
C         46.94015       77.45120       75.63508
C         47.00764       78.79118       76.36305
O         45.97655       79.40266       76.57768
C         45.69197       76.57531       75.98719
C         45.70015       75.22201       75.21956
C         45.64608       76.27901       77.50388
C         44.29501       74.61576       75.12174
H         47.85190       77.17095       73.73192
H         47.81999       76.85466       75.95874
H         44.78851       77.13500       75.67616
H         46.40208       74.50827       75.70603
H         46.03033       75.35554       74.17008
H         46.62441       75.86759       77.83887
H         45.43585       77.19804       78.08113
H         44.87318       75.52832       77.76772
H         43.66376       75.28842       74.50822
H         44.32458       73.63264       74.61030
H         43.81924       74.47599       76.11012
N         48.20025       79.30268       76.78477
C         48.32600       80.59909       77.45358
C         49.44241       81.45980       76.88045
O         49.87259       82.37273       77.56844
C         48.47349       80.43731       78.98147
C         49.67830       79.61615       79.41470
O         47.32283       79.83571       79.50172
H         49.05379       78.74335       76.64204
H         47.40115       81.20553       77.32789
H         48.59652       81.45847       79.42495
H         46.72934       80.57925       79.76059
H         50.60921       79.99300       78.94569
H         49.77777       79.69689       80.51844
H         49.52623       78.55022       79.14674
N         49.94712       81.26206       75.63218
C         50.91333       82.17019       75.01964
C         50.16166       83.46174       74.65252
O         49.63678       83.56021       73.55202
C         51.59896       81.45554       73.82350
C         52.72719       82.28346       73.20497
O         52.11964       80.22470       74.27029
H         49.59998       80.46950       75.08045
H         51.73045       82.38366       75.74250
H         50.83492       81.26863       73.05690
H         52.48115       79.74051       73.48256
H         52.38632       83.31026       72.96722
H         53.58984       82.32739       73.90272
H         53.06085       81.79740       72.26145
N         49.97078       84.43092       75.60371
C         49.10767       85.61506       75.50472
C         47.64133       85.25708       75.39100
O         47.28701       84.43068       74.56769
C         49.47816       86.57799       74.37683
C         50.93586       87.00993       74.47513
C         51.24727       88.12508       73.47815
C         52.75576       88.38503       73.45789
N         53.07708       89.58391       72.68973
H         50.46638       84.32294       76.49705
H         49.23410       86.19207       76.45132
H         48.82094       87.47337       74.47855
H         49.28805       86.12001       73.38403
H         51.57356       86.12245       74.27970
H         51.15449       87.39442       75.49806
H         50.69578       89.03941       73.79441
H         50.91437       87.84837       72.45319
H         53.26088       87.49893       73.00930
H         53.13290       88.51611       74.49564
H         54.11577       89.70007       72.66856
H         52.71650       89.50456       71.71182
H         52.65621       90.41922       73.15865
N         46.70964       85.92356       76.12885
C         45.29141       85.58892       76.09083
C         45.03289       84.30812       76.83195
O         44.43492       83.42847       76.23059
C         44.42227       86.72280       76.64307
C         44.30384       87.83611       75.59653
C         43.65269       89.04137       76.19082
O         44.28355       89.72136       77.16678
O         42.56630       89.42307       75.78799
H         47.01721       86.71049       76.72291
H         44.96306       85.43501       75.03597
H         44.84259       87.08955       77.59990
H         43.38686       86.35491       76.83313
H         43.70074       87.44524       74.74200
H         45.29990       88.13326       75.20720
N         45.41488       84.06095       78.11291
C         46.13126       84.92273       79.02806
H         47.11873       85.20285       78.61561
H         45.53097       85.81172       79.30076
H         46.32001       84.35895       79.97172
H         45.19089       83.13929       78.45571
Ca        43.53915       80.32373       75.81563
O         43.90095       82.22445       72.75012
H         44.15687       82.61973       71.88237
H         43.27939       81.50921       72.48355
O         41.31099       81.74932       76.39629
H         40.73269       81.51760       75.63123
H         40.80785       81.42710       77.18226
O         46.01039       81.86731       74.78712
H         46.41997       81.54201       73.95934
H         46.77919       82.23416       75.28255

Ca 1.0



