%chk=apoCaM-CA-Ng.loop1.water2.frame1053.chk
%nprocshared=20
%mem=10GB
%nosave
#b3lyp/svp scf=(tight,noincore,xqc) Test 
#IOP(5/87=12) Density=Current Pop=(MK,readradii) iop(6/33=2) iop(6/42=6)

apoCaM-CA-Ng.loop1.water2.frame1053 

   0  1 
C         15.68356       46.45266       47.13642
C         15.53025       46.12322       48.58972
O         15.05327       46.97604       49.32311
H         14.69177       46.73159       46.72140
H         16.37584       47.31377       47.02199
H         16.08142       45.59107       46.56297
N         15.93913       44.91791       49.08889
C         15.79576       44.55938       50.49869
C         17.13046       44.61842       51.21567
O         17.49382       43.70174       51.94040
C         15.04799       43.21375       50.65863
C         15.75326       42.00512       50.08347
O         16.84789       42.09348       49.54907
O         15.16473       40.79804       50.17501
H         16.39458       44.25266       48.44841
H         15.18244       45.32607       51.01090
H         14.05568       43.30388       50.16714
H         14.87703       43.02560       51.74088
N         17.90000       45.73010       51.07488
C         19.12369       45.96763       51.82610
C         18.79375       46.17138       53.30598
O         19.34314       45.42327       54.10188
C         19.94313       47.12313       51.19558
C         20.41889       46.70542       49.78804
C         21.15751       47.82157       49.04600
C         21.64397       47.30853       47.68000
N         22.28486       48.37166       46.90907
H         17.58905       46.45047       50.40660
H         19.78335       45.07279       51.74236
H         20.84047       47.32898       51.81906
H         19.35591       48.05877       51.12957
H         19.54855       46.40951       49.16368
H         21.09038       45.82373       49.88963
H         22.02923       48.16734       49.64254
H         20.46034       48.67502       48.89642
H         20.78215       46.91178       47.09747
H         22.36874       46.47780       47.83651
H         22.62166       47.97687       46.00092
H         21.59443       49.13163       46.70980
H         23.10064       48.75995       47.43504
N         17.88853       47.07897       53.79622
C         17.09641       48.02122       53.01022
C         15.62466       47.62800       52.98902
O         15.22908       46.68874       53.66662
C         17.34574       49.46277       53.49095
C         17.01997       49.67900       54.94239
O         15.88469       49.51418       55.35726
O         17.98833       50.07507       55.78949
H         17.71959       47.06828       54.81498
H         17.39673       47.99487       51.95804
H         16.75634       50.16818       52.87472
H         18.42094       49.69986       53.33452
N         14.78184       48.24816       52.11294
C         13.42839       47.78993       51.83442
C         12.43311       48.03581       52.93390
O         12.76810       48.62776       53.94798
H         15.15720       48.99997       51.51506
H         13.45148       46.70647       51.59801
H         13.04878       48.32444       50.93713
N         11.14690       47.61021       52.75042
C         10.05856       47.82181       53.70887
C          8.70653       47.89097       53.00114
O          8.61515       47.48182       51.85208
C         10.04095       46.66251       54.73581
C         11.27225       46.71346       55.56873
O         11.50915       47.82064       56.29008
O         12.09190       45.80981       55.53573
H         10.94121       47.12443       51.86428
H         10.21258       48.80835       54.18857
H          9.96761       45.69104       54.19746
H          9.18179       46.72111       55.42589
N          7.57827       48.38477       53.59461
C          7.49703       49.01987       54.90235
C          8.19517       50.35861       54.91590
O          7.85035       51.19848       54.09601
H          6.69833       48.33459       53.05677
H          7.85117       48.35269       55.70701
H          6.42669       49.22998       55.11754
N          9.15181       50.64747       55.84817
C          9.79370       51.95975       55.94856
C         11.29882       51.87125       55.75709
O         11.83775       50.77805       55.67390
C          9.41480       52.64949       57.28514
C          9.87042       51.87213       58.52483
O          8.02171       52.81446       57.35103
H          9.41138       49.91728       56.52804
H          9.42801       52.61779       55.13022
H          9.90432       53.64978       57.34102
H          7.79858       53.60992       56.79965
H         10.97268       51.74338       58.52310
H          9.58221       52.43298       59.43909
H          9.38479       50.87634       58.57839
N         12.02256       53.02255       55.61113
C         13.45047       53.10746       55.30236
C         14.30753       52.63911       56.46541
O         14.14993       51.51908       56.93056
C         13.82015       52.36366       53.98657
C         12.89724       52.78190       52.80234
C         15.29025       52.64013       53.61293
C         12.18799       51.57595       52.18839
H         11.51231       53.91823       55.65111
H         13.67730       54.18280       55.12114
H         13.72991       51.26959       54.16026
H         13.47526       53.29451       52.00177
H         12.11999       53.50558       53.12643
H         15.55338       52.11051       52.67528
H         15.45222       53.72891       53.45522
H         15.98204       52.30073       54.41114
H         12.93246       50.84467       51.81009
H         11.54318       51.08267       52.94651
H         11.54643       51.90546       51.34533
N         15.29202       53.45171       56.94782
C         16.18654       53.04928       58.02918
C         15.47608       52.96701       59.37301
O         16.10723       52.55597       60.33794
C         17.39732       54.02105       58.13975
C         17.00760       55.43956       58.58816
O         18.05803       54.10616       56.90345
H         15.44572       54.35743       56.48140
H         16.59480       52.04949       57.77016
H         18.10877       53.63569       58.90792
H         18.55229       53.25412       56.78093
H         17.91794       56.07239       58.65524
H         16.30663       55.91846       57.87483
H         16.53459       55.42147       59.59273
N         14.19921       53.42120       59.53411
C         13.56203       53.53054       60.83754
C         13.37000       52.14857       61.45276
O         12.58419       51.36415       60.94215
C         12.24120       54.33853       60.69473
C         11.56165       54.64534       62.02629
O         12.53065       55.56362       60.06589
H         13.69185       53.79521       58.72058
H         14.23960       54.13546       61.48173
H         11.54146       53.74627       60.06086
H         11.75308       55.79142       59.49115
H         10.65883       55.26754       61.84625
H         11.22704       53.71536       62.51272
H         12.25039       55.20809       62.69308
N         14.09822       51.78734       62.55108
C         13.99477       50.51117       63.25793
C         14.35832       49.34303       62.34951
O         13.52349       48.48012       62.11355
C         12.61214       50.35460       63.94828
C         12.25453       51.62778       64.73827
C         11.00621       51.51956       65.62194
C         11.29062       50.73296       66.91010
N         10.15045       50.79192       67.82373
H         14.77522       52.46618       62.93097
H         14.73845       50.52336       64.08646
H         12.67124       49.47476       64.62436
H         11.80479       50.16737       63.20617
H         12.06644       52.41884       63.99584
H         13.10703       51.96296       65.36650
H         10.14944       51.09057       65.05601
H         10.73317       52.55426       65.92430
H         12.16942       51.18983       67.41945
H         11.53243       49.67434       66.67743
H         10.39732       50.29233       68.70849
H          9.92907       51.78795       68.05765
H          9.31551       50.33633       67.39087
N         15.61088       49.25957       61.80620
C         16.01803       48.21137       60.87126
C         16.37432       48.83514       59.52283
O         15.57644       48.65900       58.62079
C         17.14341       47.32503       61.45164
C         16.72788       46.40448       62.61107
C         15.85864       45.25073       62.17523
O         14.62192       45.45677       61.68648
O         16.27149       44.10663       62.28531
H         16.29531       49.98837       62.05231
H         15.15637       47.54862       60.65646
H         17.93598       47.98268       61.85233
H         17.57612       46.68410       60.65096
H         16.23189       46.98405       63.41745
H         17.66536       45.97399       63.02988
N         17.48571       49.57477       59.23580
C         18.60670       49.81931       60.10996
H         19.34045       50.47165       59.59038
H         18.28775       50.32384       61.04035
H         19.13716       48.86805       60.31463
H         17.55855       49.96901       58.28711
Ca        13.59092       48.25759       56.94055
O         14.90310       45.74483       57.84271
H         15.75362       45.54820       57.37612
H         14.20065       45.46362       57.20444
O         11.58382       48.79946       59.20895
H         12.04436       48.17574       59.82426
H         12.24434       49.51868       59.04608

Ca 1.0



