%chk=apoCaM-CA-Ng.loop4.water5.frame534.chk
%nprocshared=20
%mem=10GB
%nosave
#b3lyp/svp scf=(tight,noincore,xqc) Test 
#IOP(5/87=12) Density=Current Pop=(MK,readradii) iop(6/33=2) iop(6/42=6)

apoCaM-CA-Ng.loop4.water5.frame534 

   -3  1 
C         76.75365       11.74784       77.87859
C         76.87273       11.56954       79.36385
O         75.94251       11.90870       80.07559
H         76.60681       12.82238       77.64337
H         77.66697       11.39629       77.35259
H         75.88646       11.16624       77.50293
N         78.00028       11.03014       79.90087
C         78.23440       10.80888       81.32495
C         77.18409        9.86751       81.91134
O         76.64668       10.14300       82.97691
C         78.28310       12.13994       82.11239
C         79.03109       13.24189       81.42074
O         78.32679       14.34149       81.07918
O         80.22451       13.15579       81.18283
H         78.75626       10.74207       79.25996
H         79.23072       10.31870       81.40629
H         78.69348       11.96762       83.13106
H         77.24706       12.51092       82.23226
N         76.80151        8.75613       81.22291
C         75.78935        7.81430       81.70144
C         76.35390        6.40219       81.70269
O         77.22749        6.12215       80.89335
C         74.48401        7.88177       80.84641
C         74.76410        7.73205       79.32807
C         73.72317        9.17925       81.15896
C         73.49769        7.60732       78.47966
H         77.23187        8.58387       80.30203
H         75.50852        8.06825       82.73754
H         73.82316        7.04743       81.16678
H         75.35720        6.81027       79.15620
H         75.35002        8.60197       78.95954
H         72.74117        9.21548       80.64665
H         73.51225        9.22152       82.24615
H         74.31618       10.06826       80.87011
H         73.78384        7.46991       77.41562
H         72.90558        6.72568       78.80417
H         72.86945        8.51819       78.54084
N         75.89882        5.41485       82.52974
C         74.92087        5.57933       83.60605
C         75.49713        6.45445       84.70246
O         74.86032        7.41621       85.11024
C         74.56489        4.20941       84.22529
C         73.95990        3.27832       83.21135
O         74.49857        2.21203       82.95989
O         72.81778        3.61195       82.58055
H         76.30671        4.47601       82.39419
H         73.97480        6.01432       83.21560
H         73.82730        4.35428       85.04529
H         75.47560        3.74057       84.65981
N         76.72918        6.17139       85.20892
C         77.36328        6.92104       86.27419
C         76.66235        6.68107       87.58553
O         76.50203        5.52926       87.96559
H         77.26386        5.38877       84.80315
H         77.42152        8.00026       86.00904
H         78.40230        6.54676       86.39298
N         76.25901        7.72448       88.36093
C         75.63249        7.53814       89.66790
C         74.21449        6.96801       89.60237
O         73.62883        6.79363       90.66303
C         75.67341        8.84877       90.50025
C         74.99273       10.06037       89.91589
O         74.96748       11.20164       90.62957
O         74.49703       10.04414       88.80265
H         76.48177        8.67866       88.04006
H         76.24989        6.81719       90.25004
H         76.73686        9.12280       90.66989
H         75.22345        8.64441       91.49660
N         73.58920        6.63307       88.43202
C         72.22308        6.12785       88.40946
C         71.20206        7.20011       88.74813
O         70.03317        6.87114       88.88475
H         74.07596        6.71994       87.53175
H         72.14442        5.27040       89.11280
H         71.97533        5.75431       87.39164
N         71.56343        8.51363       88.83122
C         70.66248        9.63081       89.06809
C         69.61657        9.70229       87.97234
O         68.42836        9.78266       88.25124
C         70.08896        9.60741       90.50056
C         71.21347        9.72696       91.54839
C         70.70586        9.77468       92.96924
N         71.58272        9.92149       93.98928
O         69.51017        9.68884       93.21019
H         72.53676        8.76898       88.65418
H         71.25641       10.56878       88.97369
H         69.50444        8.67787       90.66992
H         69.41021       10.47991       90.62362
H         71.78112       10.66409       91.35765
H         71.91102        8.86749       91.45391
H         72.59385       10.00232       93.80573
H         71.25103        9.96152       94.96450
N         70.02744        9.67342       86.67361
C         69.13737        9.78797       85.52361
C         69.57986       10.90283       84.58965
O         68.95797       11.04370       83.54389
C         69.11578        8.45456       84.71298
C         70.49607        8.06668       84.14138
C         68.54804        7.30353       85.54623
H         71.03470        9.54646       86.49107
H         68.09628       10.00692       85.84850
H         68.42471        8.59207       83.85065
H         71.22818        7.86091       84.94930
H         70.40492        7.15357       83.51621
H         70.89937        8.87216       83.49141
H         69.20262        7.08441       86.41239
H         67.53195        7.56328       85.91198
H         68.46731        6.38874       84.92094
N         70.67380       11.68254       84.84199
C         71.28331       12.50230       83.80740
C         71.15094       13.98184       84.10500
O         70.69616       14.36066       85.17598
C         72.73729       12.00270       83.63581
C         73.47064       12.57607       82.45408
N         74.66579       13.17996       82.61962
O         72.99473       12.47209       81.33334
H         71.16177       11.63300       85.74849
H         70.75402       12.34026       82.84364
H         72.69295       10.90668       83.48286
H         73.30545       12.18176       84.57625
H         75.10102       13.22290       83.54908
H         75.16847       13.58307       81.81712
N         71.44843       14.87218       83.12076
C         71.26927       16.31968       83.21303
C         71.49521       16.98496       81.85844
O         71.92645       16.32908       80.91751
C         72.18176       16.92341       84.31409
C         73.62837       16.47354       84.22361
C         74.16444       15.67610       85.25253
C         74.45299       16.82657       83.13940
C         75.48572       15.23050       85.19452
C         75.77754       16.37474       83.08362
C         76.29531       15.57207       84.10510
O         77.56296       15.12209       84.02471
H         71.76272       14.47383       82.22867
H         70.20665       16.52530       83.47084
H         71.77336       16.59608       85.29263
H         72.12332       18.03243       84.31903
H         73.55675       15.38537       86.10008
H         74.07989       17.44653       82.33628
H         75.87462       14.60590       85.98881
H         76.40277       16.63983       82.24305
H         77.94963       14.54161       84.69560
N         71.20704       18.30508       81.68380
C         71.45098       18.99716       80.42556
C         72.48562       20.07407       80.67446
O         72.19031       20.98415       81.43769
C         70.15727       19.61057       79.84797
C         69.10564       18.54786       79.49381
C         67.90466       19.17618       78.84195
O         68.02313       19.78102       77.78750
O         66.68807       19.06088       79.40770
H         70.82781       18.84590       82.47712
H         71.82582       18.28891       79.67192
H         70.42658       20.15979       78.91800
H         69.71808       20.33610       80.56882
H         68.78916       18.01409       80.41591
H         69.53880       17.80815       78.78633
N         73.73622       20.06615       80.12278
C         74.27576       19.04400       79.22353
C         73.53267       19.00974       77.90300
O         73.42644       20.03439       77.24233
C         75.75834       19.32747       78.90105
C         76.69784       19.09159       80.09103
C         78.10684       19.45091       79.70335
O         79.08686       18.52323       79.65646
O         78.37294       20.60757       79.41747
H         74.35852       20.84522       80.39008
H         74.22383       18.04492       79.71082
H         75.85214       20.37020       78.52300
H         76.09168       18.63549       78.09597
H         76.64505       18.02087       80.37536
H         76.39886       19.70344       80.96884
N         73.04695       17.82926       77.42791
C         72.40731       17.72132       76.13664
H         71.49414       18.35082       76.10819
H         73.11252       18.04579       75.34112
H         72.12536       16.66415       75.94341
H         73.16371       16.96830       77.98431
Ca        78.83835       16.31698       80.10810
O         75.77434       15.35129       79.32789
H         76.20243       14.52512       79.66194
H         75.32762       15.73564       80.12234
O         79.40790       17.54479       82.76415
H         80.32212       17.54453       82.38475
H         79.12268       16.59987       82.70379
O         81.95399       17.98602       79.67871
H         81.68741       18.86813       80.04032
H         82.00779       18.12266       78.69951
O         81.94971       15.04869       79.76402
H         82.28385       14.12775       79.62184
H         82.33533       15.32126       80.63456
O         77.53495       16.64839       76.90542
H         76.78516       16.00209       76.89445
H         77.61258       16.95128       75.96607

Ca 1.0



