%chk=apoCaM-CA-Ng.loop4.water5.frame825.chk
%nprocshared=20
%mem=10GB
%nosave
#b3lyp/svp scf=(tight,noincore,xqc) Test 
#IOP(5/87=12) Density=Current Pop=(MK,readradii) iop(6/33=2) iop(6/42=6)

apoCaM-CA-Ng.loop4.water5.frame825 

   -3  1 
C         72.22380       95.62278       55.60644
C         73.36218       95.81189       54.64533
O         74.34130       96.44826       55.00539
H         71.39952       95.03405       55.14937
H         72.58087       95.08570       56.50928
H         71.81983       96.61326       55.90336
N         73.29320       95.28526       53.39041
C         74.31993       95.42812       52.36315
C         75.62568       94.78008       52.81918
O         76.63922       95.46760       52.85885
C         74.55616       96.92131       51.98971
C         73.32636       97.78244       52.00118
O         72.25729       97.57762       51.20803
O         73.28831       98.71101       52.79446
H         72.44776       94.75521       53.12746
H         73.94887       94.90483       51.45378
H         75.08551       96.98662       51.01497
H         75.22352       97.38025       52.75352
N         75.67953       93.47120       53.21897
C         76.91031       92.88797       53.76966
C         77.45698       91.79935       52.86038
O         76.70065       91.29880       52.03910
C         76.70512       92.43496       55.25918
C         75.77365       91.20707       55.47619
C         76.15031       93.61788       56.07570
C         76.41079       89.85512       55.13679
H         74.82652       92.89446       53.16518
H         77.67658       93.68343       53.78288
H         77.68983       92.18444       55.70793
H         74.81057       91.33698       54.93929
H         75.54114       91.13328       56.56190
H         76.08454       93.35295       57.15290
H         76.81245       94.50403       55.98274
H         75.13004       93.88898       55.73337
H         75.70574       89.04013       55.40423
H         76.64895       89.73797       54.06750
H         77.33701       89.71450       55.73432
N         78.75792       91.37153       52.88898
C         79.83336       91.95189       53.68838
C         80.86883       92.51841       52.73244
O         81.48487       91.75019       52.00563
C         80.44399       90.87910       54.61316
C         81.54656       91.38758       55.51090
O         81.89813       92.55746       55.49219
O         82.15205       90.53189       56.35541
H         79.02076       90.61305       52.23904
H         79.46460       92.76478       54.33638
H         80.84535       90.04622       53.99577
H         79.64178       90.47085       55.26282
N         81.07212       93.86510       52.64483
C         82.01497       94.46633       51.71229
C         82.92868       95.44030       52.41193
O         84.13595       95.24667       52.41301
H         80.49438       94.49286       53.22445
H         81.44886       95.03309       50.94216
H         82.61441       93.69362       51.18443
N         82.40120       96.55711       52.98420
C         83.19795       97.60976       53.60455
C         84.01413       97.10249       54.77915
O         85.21903       97.31642       54.78765
C         82.32016       98.82986       53.99029
C         81.24654       98.58483       55.02288
O         80.35878       97.77266       54.82208
O         81.22102       99.31806       56.15207
H         81.38183       96.68500       52.91555
H         83.90883       98.00030       52.84030
H         81.82782       99.20618       53.06778
H         82.98822       99.63757       54.36012
N         83.44074       96.40602       55.79978
C         84.20191       95.96506       56.95695
C         84.46457       97.08419       57.94666
O         85.11945       96.82150       58.94313
H         82.44366       96.15201       55.74420
H         85.14821       95.48385       56.62541
H         83.61295       95.20110       57.50839
N         83.92777       98.33228       57.78407
C         84.02502       99.42084       58.75183
C         83.32755       99.09969       60.07673
O         83.43831       99.91035       60.98767
C         85.49360       99.85713       58.98313
C         86.27941      100.14040       57.68982
C         85.61544      101.15800       56.79575
N         85.27746      100.83629       55.52455
O         85.38941      102.28248       57.21681
H         83.38676       98.53930       56.93960
H         83.49769      100.30569       58.32916
H         86.04592       99.08101       59.55290
H         85.48862      100.78083       59.60467
H         86.41656       99.18658       57.13755
H         87.28866      100.51435       57.96661
H         85.47058       99.89746       55.14820
H         84.82694      101.52792       54.90779
N         82.57792       97.96611       60.26256
C         81.97678       97.60206       61.54568
C         80.45221       97.58448       61.52210
O         79.88578       97.43977       62.59539
C         82.51275       96.22409       62.04087
C         82.18830       95.07405       61.06618
C         84.02165       96.27450       62.30991
H         82.42772       97.32678       59.47272
H         82.24401       98.36263       62.31260
H         82.02233       95.98978       63.01191
H         82.70116       95.20537       60.09101
H         82.52474       94.10576       61.49305
H         81.09446       95.00471       60.88830
H         84.37105       95.29797       62.70907
H         84.58675       96.49738       61.38461
H         84.24931       97.05707       63.06389
N         79.71602       97.70551       60.37406
C         78.25021       97.70184       60.38170
C         77.72411       98.98218       59.74719
O         78.50559       99.72964       59.17847
C         77.75011       96.43714       59.65456
C         76.25913       96.23609       59.76958
N         75.47539       96.19823       58.66723
O         75.75468       96.09894       60.87456
H         80.19210       97.78485       59.46533
H         77.88051       97.67243       61.42899
H         78.23442       95.54764       60.11390
H         78.06365       96.48232       58.58893
H         75.87880       96.31075       57.72649
H         74.45782       96.05820       58.75573
N         76.40617       99.33352       59.86701
C         75.90409      100.60053       59.33009
C         74.55204      100.98074       59.94710
O         73.97531      100.18235       60.66859
C         75.80664      100.50747       57.78731
C         76.00345      101.83382       57.10013
C         74.94589      102.49380       56.46062
C         77.28930      102.40075       57.06243
C         75.16794      103.70772       55.80030
C         77.51435      103.60352       56.39055
C         76.45650      104.26333       55.75906
O         76.69132      105.42424       55.11508
H         75.79507       98.73046       60.43019
H         76.63319      101.37956       59.64635
H         74.84216      100.02142       57.51782
H         76.59882       99.84692       57.37233
H         73.95404      102.07349       56.48280
H         78.12403      101.89766       57.53437
H         74.34102      104.21170       55.31658
H         78.51415      104.01848       56.35649
H         75.99022      105.91336       54.66202
N         74.02499      102.22832       59.76440
C         72.81506      102.68409       60.44670
C         71.92505      103.47472       59.48267
O         71.88326      104.69214       59.59549
C         73.25380      103.51510       61.67605
C         72.06866      103.89429       62.58329
C         72.54057      104.61443       63.81272
O         73.12863      105.67974       63.71605
O         72.30735      104.09066       65.03158
H         74.57245      102.92246       59.23628
H         72.24620      101.83700       60.87704
H         73.80936      104.42266       61.35218
H         73.94639      102.88751       62.28163
H         71.53590      102.96829       62.89322
H         71.34861      104.54497       62.04635
N         71.18042      102.90228       58.48974
C         71.04067      101.47098       58.25133
C         70.31132      100.81271       59.40637
O         69.21101      101.23625       59.73635
C         70.23284      101.18852       56.95960
C         70.91266      101.74756       55.70173
C         70.29066      101.18904       54.45431
O         69.12518      101.40512       54.16332
O         71.05178      100.37860       53.69871
H         70.65399      103.54456       57.87663
H         72.04772      101.01902       58.11346
H         69.19704      101.58934       57.03102
H         70.17140      100.08118       56.85394
H         71.96842      101.41150       55.70937
H         70.89734      102.85745       55.68320
N         70.85680       99.74863       60.05430
C         70.18809       99.09475       61.15757
H         69.20459       98.69874       60.82567
H         70.80594       98.24880       61.52657
H         70.03693       99.81521       61.98943
H         71.76925       99.38115       59.74972
Ca        70.68684       99.04457       51.91335
O         68.13481       97.51881       51.32602
H         67.46892       97.60310       52.05385
H         68.33949       96.55116       51.28510
O         71.32360       99.11867       48.86001
H         71.89857       99.88219       48.60225
H         70.59049       99.12094       48.19500
O         69.43534       98.03568       54.60409
H         68.58683       98.46250       54.32381
H         69.22118       97.07175       54.66881
O         68.53090      100.60976       50.22800
H         67.69512      100.23522       50.60432
H         68.41892      100.53052       49.24744
O         71.89435      101.76943       50.85197
H         72.25852      102.41265       51.51072
H         71.83334      102.28389       50.00815

Ca 1.0



