%chk=apoCaM-CA-Ng.loop1.water2.frame1139.chk
%nprocshared=20
%mem=10GB
%nosave
#b3lyp/svp scf=(tight,noincore,xqc) Test 
#IOP(5/87=12) Density=Current Pop=(MK,readradii) iop(6/33=2) iop(6/42=6)

apoCaM-CA-Ng.loop1.water2.frame1139 

   0  1 
C         66.23909       42.49862       80.90261
C         67.60380       42.14351       80.39253
O         68.34132       43.04050       80.01732
H         65.46508       41.97222       80.30592
H         66.15385       42.19566       81.96674
H         66.06200       43.59365       80.82840
N         68.00390       40.83872       80.36720
C         69.32265       40.38546       79.92128
C         69.38158       40.18562       78.41291
O         69.57439       39.07165       77.94637
C         69.82329       39.17069       80.74193
C         69.02629       37.90169       80.58010
O         69.61949       36.80208       80.07806
O         67.86180       37.84085       80.93776
H         67.34009       40.14653       80.73654
H         70.05911       41.16126       80.15262
H         69.84696       39.44494       81.81886
H         70.87175       38.96484       80.42928
N         69.25819       41.26229       77.58894
C         69.25429       41.19836       76.13833
C         70.45425       41.90055       75.48387
O         71.00817       41.26892       74.59362
C         67.89670       41.69590       75.59463
C         66.76277       40.77946       76.10333
C         65.39149       41.11581       75.50742
C         64.33903       40.11451       76.01716
N         63.02393       40.37564       75.43468
H         69.11557       42.17688       78.01310
H         69.32049       40.13758       75.80171
H         67.91788       41.63915       74.48350
H         67.70923       42.75073       75.88947
H         66.70062       40.84029       77.21191
H         67.00588       39.73091       75.82015
H         65.44739       41.04936       74.39884
H         65.09828       42.14938       75.79257
H         64.26954       40.17853       77.12622
H         64.65068       39.07967       75.74849
H         62.69829       41.33475       75.69326
H         63.06756       40.28196       74.39388
H         62.34256       39.67406       75.80614
N         70.95200       43.15115       75.76228
C         70.58818       44.04743       76.86124
C         71.27250       43.62792       78.17248
O         72.03290       42.67011       78.17520
C         70.91404       45.51546       76.48953
C         72.35420       45.76746       76.13373
O         73.33532       45.52943       77.02276
O         72.63428       46.20709       75.03018
H         71.73669       43.45517       75.16444
H         69.48756       44.03313       76.99078
H         70.63502       46.18492       77.32597
H         70.28471       45.79783       75.61648
N         70.97978       44.26517       79.34750
C         71.43763       43.78760       80.65040
C         72.86805       44.08865       81.00689
O         73.53617       44.83664       80.30936
H         70.28184       45.02309       79.33545
H         71.30507       42.70042       80.70475
H         70.81147       44.23911       81.44933
N         73.40014       43.49922       82.12154
C         74.74429       43.75824       82.63073
C         74.73907       43.95023       84.14373
O         73.80981       43.49293       84.79674
C         75.68369       42.59687       82.23788
C         75.89075       42.67660       80.76286
O         76.41757       43.81301       80.27158
O         75.49805       41.79514       80.01667
H         72.82731       42.79421       82.61290
H         75.11615       44.69136       82.17155
H         75.24599       41.62299       82.54880
H         76.68063       42.68585       82.71147
N         75.74900       44.59182       84.80683
C         76.85593       45.28098       84.15343
C         76.37494       46.50341       83.40453
O         75.20139       46.83787       83.48706
H         75.71656       44.62374       85.83766
H         77.39474       44.59289       83.47736
H         77.57991       45.63054       84.92058
N         77.24606       47.24390       82.66139
C         76.81671       48.46423       81.98356
C         75.77142       48.20381       80.90556
O         75.58792       47.07362       80.47507
C         78.01199       49.27003       81.41295
C         78.73186       48.54865       80.26849
O         78.93794       49.53747       82.43367
H         78.23548       46.95807       82.63558
H         76.34094       49.09995       82.76463
H         77.64224       50.23525       80.99405
H         78.52709       50.22453       83.02127
H         78.03828       48.38541       79.41725
H         79.57585       49.17341       79.90829
H         79.14041       47.57143       80.59752
N         75.00529       49.24679       80.48260
C         73.91475       49.19863       79.51476
C         74.43133       49.00651       78.09662
O         75.05626       47.99651       77.80433
C         72.80356       48.14973       79.84112
C         72.45048       48.01808       81.34454
C         71.53683       48.45690       79.01525
C         72.04959       49.31550       82.04254
H         75.17061       50.16287       80.92827
H         73.42458       50.19662       79.57320
H         73.15888       47.14703       79.53041
H         73.32194       47.60168       81.88485
H         71.62863       47.27573       81.45546
H         71.75945       48.44912       77.92759
H         70.75094       47.69760       79.20982
H         71.12665       49.45663       79.27173
H         71.82084       49.09234       83.10647
H         72.88532       50.04399       82.02020
H         71.15082       49.76456       81.57693
N         74.13106       49.93292       77.14328
C         74.45644       49.76986       75.72745
C         75.94889       49.82996       75.41183
O         76.29742       49.57997       74.26547
C         73.70338       50.83629       74.87750
C         74.15287       52.27794       75.17473
O         72.32088       50.74362       75.10900
H         73.55525       50.73721       77.43006
H         74.07936       48.77047       75.41454
H         73.90427       50.65979       73.79473
H         71.99663       49.94931       74.60969
H         73.96846       52.56029       76.23154
H         75.23378       52.40888       74.95938
H         73.58630       52.98591       74.53356
N         76.87709       50.23004       76.32764
C         78.27560       50.45341       75.96631
C         78.99421       49.15216       75.62383
O         79.25005       48.36538       76.52237
C         79.00276       51.20774       77.11475
C         80.49141       51.44035       76.84133
O         78.39286       52.46089       77.30841
H         76.56377       50.48475       77.27534
H         78.29349       51.12466       75.07772
H         78.94352       50.59961       78.04810
H         77.78169       52.38370       78.08674
H         80.94364       51.99149       77.69362
H         81.02978       50.47470       76.74529
H         80.63186       52.03338       75.91384
N         79.39953       48.89630       74.34110
C         80.28633       47.79698       73.95362
C         79.76683       46.43146       74.38217
O         80.32927       45.82648       75.28602
C         81.71473       48.04830       74.47464
C         82.31044       49.35439       73.91645
C         83.80192       49.51032       74.24808
C         84.08896       49.57973       75.75541
N         85.52161       49.73066       76.00209
H         79.11789       49.55176       73.59619
H         80.38395       47.77936       72.84422
H         82.35366       47.20486       74.12971
H         81.71289       48.06602       75.58331
H         81.74118       50.23040       74.29457
H         82.22485       49.34336       72.80708
H         84.16679       50.44556       73.76967
H         84.35965       48.65654       73.80423
H         83.74679       48.64929       76.25520
H         83.54303       50.44184       76.19760
H         86.04029       48.91377       75.60391
H         85.87119       50.61619       75.56981
H         85.68822       49.76463       77.03359
N         78.71519       45.86579       73.73026
C         78.14560       44.56923       74.09561
C         76.69824       44.73539       74.51947
O         76.43551       44.41137       75.66290
C         78.31094       43.48702       73.00349
C         79.76753       43.02067       72.86043
C         79.87463       41.92020       71.84137
O         79.57949       42.12996       70.67560
O         80.29610       40.69475       72.21013
H         78.31261       46.39586       72.94837
H         78.67406       44.15813       74.98763
H         77.92833       43.81999       72.02259
H         77.72190       42.59417       73.31437
H         80.11853       42.62919       73.84182
H         80.42406       43.86405       72.56155
N         75.67551       45.20999       73.74968
C         75.72460       45.64142       72.37015
H         75.42620       46.70901       72.31513
H         76.70543       45.53741       71.89483
H         75.00378       45.03747       71.78181
H         74.75102       45.27348       74.19612
Ca        75.91283       44.56250       78.24017
O         74.83401       42.08147       76.66226
H         75.50988       41.87449       77.35515
H         74.29927       42.81733       77.05100
O         78.34958       46.12605       78.03810
H         77.95979       46.18639       77.12988
H         78.68914       45.19891       78.10212

Ca 1.0



