%chk=apoCaM-CA-Ng.loop1.water3.frame1169.chk
%nprocshared=20
%mem=10GB
%nosave
#b3lyp/svp scf=(tight,noincore,xqc) Test 
#IOP(5/87=12) Density=Current Pop=(MK,readradii) iop(6/33=2) iop(6/42=6)

apoCaM-CA-Ng.loop1.water3.frame1169 

   0  1 
C        103.66202       34.71126      109.34739
C        103.26735       34.81914      110.78937
O        102.08716       34.68470      111.07987
H        104.75736       34.83004      109.21542
H        103.35951       33.71800      108.95568
H        103.14689       35.50435      108.76443
N        104.19823       35.09676      111.74855
C        103.85934       35.25812      113.15880
C        103.96705       36.72059      113.53666
O        104.66911       37.08136      114.47248
C        104.68618       34.29929      114.04974
C        106.18483       34.49882      114.03635
O        106.71161       35.37772      113.37251
O        106.95790       33.69153      114.78666
H        105.17292       35.25169      111.45391
H        102.79813       34.99157      113.31923
H        104.47511       33.25757      113.72613
H        104.33803       34.40648      115.10032
N        103.26356       37.63080      112.80959
C        103.30333       39.06031      113.06203
C        102.57208       39.40824      114.34863
O        103.20843       40.01964      115.19462
C        102.82417       39.87126      111.83611
C        103.71563       39.54421      110.62081
C        103.36220       40.36479      109.38201
C        104.25534       39.93499      108.20738
N        103.95220       40.70183      107.00212
H        102.70472       37.28832      112.01388
H        104.36980       39.36551      113.18057
H        102.92031       40.95454      112.07053
H        101.76622       39.67004      111.58240
H        103.61203       38.46951      110.36169
H        104.77979       39.73927      110.88189
H        103.51440       41.44494      109.59793
H        102.29669       40.19503      109.11476
H        104.09547       38.85239      108.00008
H        105.32578       40.08248      108.47568
H        104.56645       40.36731      106.22463
H        102.95261       40.56102      106.72922
H        104.13745       41.71727      107.16894
N        101.28246       39.05182      114.64750
C        100.39091       38.20139      113.85348
C        100.58702       36.73947      114.22599
O        101.44622       36.45977      115.05235
C         98.91497       38.65199      114.01133
C         98.33878       38.40203      115.38387
O         97.38138       37.65674      115.51684
O         98.85533       39.00437      116.46894
H        100.97918       39.29597      115.59872
H        100.62885       38.29847      112.78072
H         98.29254       38.10209      113.27236
H         98.82850       39.73210      113.76474
N         99.84287       35.74506      113.65815
C        100.08116       34.33456      113.93575
C         98.96782       33.68808      114.71536
O         97.97964       34.33434      115.03146
H         99.09086       35.98440      112.99320
H        100.99501       34.19811      114.54954
H        100.23800       33.79617      112.97651
N         99.11099       32.39013      115.10420
C         98.15404       31.65350      115.92801
C         97.66642       30.41876      115.15613
O         98.19469       30.19257      114.07417
C         98.87855       31.24768      117.23796
C         99.59570       32.36490      117.97443
O        100.79992       32.27930      118.15398
O         98.94060       33.41985      118.50066
H         99.97552       31.89722      114.82495
H         97.28176       32.28177      116.14716
H         99.64327       30.48331      116.97434
H         98.18069       30.79297      117.95471
N         96.70835       29.53217      115.57636
C         95.86818       29.58228      116.76606
C         94.77240       30.60939      116.65147
O         94.03304       30.56366      115.67784
H         96.54846       28.71174      114.96968
H         96.45420       29.65970      117.69424
H         95.33069       28.61108      116.83600
N         94.57988       31.54807      117.62261
C         93.50609       32.54396      117.55337
C         94.04200       33.87073      116.94629
O         95.26311       33.61273      116.35182
C         92.88625       32.72867      118.96040
C         91.71618       33.71423      118.97844
O         93.87654       33.16784      119.85440
H         95.25112       31.59129      118.40461
H         92.70546       32.16021      116.88055
H         92.50745       31.73005      119.28404
H         93.60582       32.87327      120.76309
H         92.05671       34.72619      118.67799
H         90.91171       33.37402      118.29385
H         91.29938       33.78124      120.00641
N         93.11268       34.37483      115.91401
C         93.54278       35.55178      115.11696
C         93.77573       36.77243      115.99684
O         94.62516       36.73408      116.87579
C         94.79791       35.31366      114.20367
C         94.75458       33.99312      113.38262
C         95.05015       36.51809      113.27331
C         93.63072       33.89380      112.35315
H         92.19038       34.59286      116.35522
H         92.70786       35.76428      114.41321
H         95.69523       35.26428      114.84485
H         94.66203       33.12222      114.06192
H         95.72375       33.88039      112.84728
H         95.20177       37.44895      113.85756
H         95.97039       36.35197      112.67299
H         94.19469       36.68473      112.58758
H         93.70792       32.91518      111.83230
H         92.63943       33.95033      112.84580
H         93.71861       34.68980      111.58683
N         93.11797       37.93218      115.72789
C         93.44421       39.19956      116.37937
C         92.98679       39.30236      117.83506
O         93.26722       40.32719      118.44325
C         92.87912       40.38683      115.54635
C         91.34471       40.43751      115.51123
O         93.35353       40.31186      114.22529
H         92.46784       37.93240      114.92868
H         94.55152       39.31145      116.35852
H         93.21710       41.34823      115.99901
H         94.30438       40.59721      114.24058
H         90.93130       40.54810      116.53496
H         91.01806       41.31269      114.91010
H         90.91152       39.52770      115.04802
N         92.24407       38.33549      118.45031
C         91.67449       38.51949      119.78711
C         92.75067       38.65524      120.85415
O         93.42850       37.67809      121.13550
C         90.72842       37.33951      120.13816
C         90.08434       37.47627      121.52167
O         89.70266       37.25573      119.17977
H         92.00635       37.48157      117.92590
H         91.06159       39.44841      119.76299
H         91.32204       36.39551      120.15836
H         89.92254       36.50382      118.56939
H         89.47900       38.40467      121.57999
H         89.42523       36.60227      121.71095
H         90.85508       37.49326      122.32079
N         92.93426       39.83916      121.51547
C         93.84525       40.01053      122.64619
C         95.24017       39.53395      122.29032
O         95.72184       38.56925      122.87055
C         93.28124       39.31824      123.90817
C         91.93291       39.93164      124.32511
C         91.44487       39.34911      125.65910
C         90.14388       40.00102      126.16117
N         89.00354       39.72843      125.28459
H         92.39061       40.66347      121.21813
H         93.91543       41.09226      122.90105
H         94.00528       39.47827      124.73821
H         93.16716       38.22436      123.74707
H         91.18732       39.74556      123.52492
H         92.05767       41.03011      124.44970
H         92.22704       39.53867      126.42705
H         91.30405       38.25030      125.56953
H         90.28581       41.10014      126.26521
H         89.92089       39.59142      127.17127
H         89.14005       40.16574      124.34630
H         88.86716       38.69650      125.18356
H         88.14319       40.14071      125.71272
N         95.94298       40.17958      121.32077
C         97.24356       39.72954      120.84236
C         97.14944       39.42144      119.34870
O         97.25039       38.24701      119.02463
C         98.36785       40.70700      121.23782
C         98.51674       40.80177      122.76617
C         99.65255       41.70740      123.14679
O         99.41924       42.81060      123.88300
O        100.79389       41.44081      122.80470
H         95.51707       41.01558      120.90452
H         97.51069       38.76720      121.33643
H         98.17194       41.72468      120.85916
H         99.32378       40.33145      120.80969
H         98.71110       39.79443      123.19467
H         97.57511       41.19554      123.20675
N         96.92468       40.33585      118.35503
C         96.87378       41.77501      118.49258
H         96.07400       42.10133      119.17718
H         97.86153       42.16450      118.80376
H         96.66256       42.23050      117.50201
H         96.80284       39.97626      117.39723
Ca        96.87038       33.95783      117.88105
O         94.99101       35.72511      119.66943
H         95.03355       35.48724      120.62959
H         95.31762       36.65724      119.63020
O         98.20648       35.72077      120.75391
H         97.41047       36.08087      121.21801
H         98.83190       36.48713      120.71214
O         99.60399       36.36293      117.83324
H        100.36450       36.22135      117.22059
H         99.86767       35.86570      118.64524

Ca 1.0



