%chk=apoCaM-CA-Ng.loop1.water3.frame1345.chk
%nprocshared=20
%mem=10GB
%nosave
#b3lyp/svp scf=(tight,noincore,xqc) Test 
#IOP(5/87=12) Density=Current Pop=(MK,readradii) iop(6/33=2) iop(6/42=6)

apoCaM-CA-Ng.loop1.water3.frame1345 

   0  1 
C         52.35059       20.38600       97.66012
C         52.09042       21.33852       98.78949
O         52.50543       22.48033       98.68658
H         53.44457       20.23044       97.55422
H         51.87064       19.40083       97.83800
H         51.94701       20.81020       96.71741
N         51.37260       20.93560       99.87751
C         51.03561       21.77015      101.03444
C         52.20341       21.99912      101.99987
O         52.10876       21.61289      103.15796
C         49.77091       21.19971      101.73994
C         49.85544       19.77273      102.23331
O         48.76376       19.20547      102.78079
O         50.87896       19.11530      102.12645
H         50.97089       19.98861       99.83010
H         50.72654       22.76211      100.67996
H         48.93480       21.24307      101.00903
H         49.49872       21.85427      102.59722
N         53.32526       22.67143      101.60790
C         54.42288       22.97983      102.50961
C         53.98321       24.01298      103.53613
O         54.08326       23.70245      104.71482
C         55.72470       23.36661      101.76571
C         56.12466       22.26041      100.76816
C         57.57474       22.40774      100.30482
C         57.97896       21.23275       99.40197
N         59.41117       21.26895       99.11182
H         53.40943       23.00249      100.64871
H         54.69867       22.04166      103.04625
H         56.51446       23.45313      102.54489
H         55.68238       24.33625      101.23364
H         55.43917       22.26442       99.89158
H         56.03900       21.27402      101.27379
H         58.22160       22.39220      101.20843
H         57.72400       23.37205       99.77162
H         57.39706       21.26363       98.45331
H         57.74988       20.27365       99.91867
H         59.65470       22.14209       98.59163
H         59.95377       21.22683      100.00589
H         59.66464       20.43705       98.53149
N         53.41051       25.22135      103.23277
C         53.15013       25.76471      101.89369
C         51.71784       25.56178      101.45293
O         50.87573       25.15977      102.24253
C         53.52396       27.26078      101.81548
C         53.10462       28.04921      103.03872
O         51.83314       28.26613      103.45040
O         53.99801       28.51014      103.72726
H         53.06179       25.76107      104.03912
H         53.74052       25.22367      101.13596
H         53.15112       27.72353      100.87761
H         54.63487       27.32120      101.77459
N         51.41209       25.73525      100.13063
C         50.10846       25.44346       99.55800
C         49.08343       26.50210       99.83683
O         49.41727       27.54858      100.35361
H         52.17071       25.98630       99.47683
H         49.74978       24.46469       99.91483
H         50.19892       25.38792       98.45206
N         47.78428       26.28435       99.50321
C         46.72589       27.28819       99.64838
C         45.85838       27.29114       98.39132
O         46.00981       26.38298       97.58506
C         45.90748       26.95156      100.91933
C         46.81261       27.06500      102.10890
O         47.44561       28.23174      102.33606
O         47.07649       26.08272      102.78000
H         47.53300       25.34327       99.16205
H         47.17678       28.29929       99.75845
H         45.50679       25.91687      100.84232
H         45.05568       27.63281      101.07386
N         44.90744       28.23084       98.10858
C         44.63345       29.45744       98.83871
C         45.70561       30.48411       98.60553
O         45.96877       30.80103       97.45324
H         44.33620       28.07613       97.26345
H         44.43621       29.27474       99.90735
H         43.70852       29.90688       98.41944
N         46.35612       31.06485       99.65008
C         47.37780       32.08489       99.47078
C         48.71884       31.46640       99.78313
O         48.83325       30.73230      100.75312
C         47.06609       33.34446      100.31325
C         47.97659       34.51998       99.92341
O         47.19774       33.05829      101.68082
H         46.14043       30.75394      100.61017
H         47.39316       32.42720       98.41199
H         46.01792       33.65146      100.08770
H         46.63671       33.71111      102.17462
H         47.83276       34.77142       98.84966
H         47.70891       35.42179      100.51236
H         49.04732       34.28092      100.09191
N         49.77558       31.72132       98.96715
C         51.10447       31.13932       99.07558
C         51.63636       31.22227      100.49795
O         51.43412       30.29265      101.26829
C         51.18512       29.68446       98.52046
C         50.30466       29.42297       97.27222
C         52.65304       29.29237       98.26702
C         50.67419       30.23195       96.03212
H         49.63986       32.40383       98.20577
H         51.74973       31.75038       98.40614
H         50.78820       29.00635       99.28303
H         49.24373       29.63340       97.53104
H         50.36001       28.34190       97.01387
H         53.11199       29.96582       97.51263
H         53.25104       29.38012       99.19680
H         52.72338       28.24670       97.90067
H         50.61341       31.31949       96.23488
H         51.69380       29.97274       95.68309
H         49.95966       29.98564       95.21828
N         52.36684       32.28974      100.90068
C         52.99955       32.35958      102.21263
C         52.56678       33.58171      103.01156
O         53.15188       33.81783      104.05753
C         54.53229       32.21704      102.02406
C         55.17138       33.34357      101.21078
O         54.80454       31.00705      101.36269
H         52.52760       33.05427      100.22890
H         52.71010       31.49388      102.84888
H         55.03154       32.20175      103.01996
H         54.51404       30.27441      101.96323
H         54.73230       33.40878      100.19425
H         55.05880       34.31699      101.72854
H         56.25443       33.12720      101.08736
N         51.52583       34.37545      102.61454
C         51.05865       35.53534      103.37515
C         50.38622       35.06262      104.68232
O         49.20206       34.75881      104.66592
C         50.13155       36.39410      102.45942
C         49.78823       37.76100      103.05464
O         50.78823       36.61157      101.23271
H         51.04429       34.15372      101.73102
H         51.94338       36.17049      103.60095
H         49.19592       35.81847      102.27663
H         50.09520       36.85478      100.56344
H         50.71806       38.35056      103.20648
H         49.14453       38.32071      102.33884
H         49.24565       37.66055      104.01431
N         51.12439       34.90421      105.82893
C         50.66365       34.34449      107.11302
C         50.28124       32.87509      107.01420
O         49.44299       32.52511      106.19717
C         49.52135       35.13055      107.77068
C         49.86561       36.60942      107.96670
C         48.77112       37.30084      108.79356
C         48.95377       38.82329      108.88626
N         50.15158       39.21061      109.63332
H         52.11373       35.18766      105.79610
H         51.51917       34.40973      107.82264
H         49.34941       34.67217      108.77262
H         48.58179       35.03772      107.18606
H         49.94491       37.08691      106.96606
H         50.84147       36.69832      108.48990
H         48.73248       36.86069      109.81567
H         47.79250       37.11611      108.30055
H         48.06358       39.24721      109.40147
H         48.99131       39.25001      107.85999
H         50.21664       40.25431      109.64028
H         50.08255       38.87300      110.62082
H         51.01616       38.83442      109.18538
N         50.83188       31.95357      107.86316
C         50.58278       30.52208      107.72703
C         51.18751       30.06637      106.41213
O         50.42659       29.60643      105.57453
C         51.10752       29.70402      108.92835
C         50.35701       30.03377      110.22380
C         50.93321       29.24833      111.36567
O         50.77807       28.03868      111.42508
O         51.65401       29.87572      112.31438
H         51.46439       32.27825      108.60962
H         49.48318       30.33870      107.69783
H         52.17452       29.90986      109.11109
H         50.98537       28.61842      108.71369
H         49.26992       29.81205      110.13100
H         50.47469       31.11554      110.43788
N         52.50683       30.21014      106.08365
C         53.56388       30.70132      106.94468
H         54.50824       30.77805      106.36566
H         53.33204       31.70778      107.34131
H         53.77116       29.98101      107.75811
H         52.78220       29.96739      105.12792
Ca        49.65031       28.22736      102.86015
O         47.57318       30.13890      104.69071
H         47.00745       29.36383      104.93379
H         47.34627       30.83298      105.35889
O         49.42527       26.65983      105.13509
H         50.17166       26.14543      104.73750
H         48.62062       26.31151      104.67886
O         49.83332       31.65885      103.33722
H         48.98576       32.11155      103.10990
H         50.31035       32.31408      103.90015

Ca 1.0



