%chk=apoCaM-CA-Ng.loop4.water6.frame538.chk
%nprocshared=20
%mem=10GB
%nosave
#b3lyp/svp scf=(tight,noincore,xqc) Test 
#IOP(5/87=12) Density=Current Pop=(MK,readradii) iop(6/33=2) iop(6/42=6)

apoCaM-CA-Ng.loop4.water6.frame538 

   -3  1 
C         84.67833        3.21547       70.33104
C         83.98778        2.62044       71.51789
O         83.24219        3.32558       72.17748
H         85.77726        3.14559       70.46576
H         84.37858        2.66473       69.41546
H         84.39859        4.28481       70.21166
N         84.18661        1.30765       71.84223
C         83.57539        0.62093       72.98493
C         82.05640        0.45662       72.84377
O         81.44171       -0.09511       73.74606
C         83.96953        1.32152       74.31013
C         85.45024        1.57673       74.35728
O         85.89942        2.84745       74.34746
O         86.24261        0.64922       74.32716
H         84.83735        0.75959       71.25930
H         83.99886       -0.40748       73.02518
H         83.65537        0.71660       75.18798
H         83.46310        2.29744       74.38880
N         81.38659        0.89762       71.73645
C         79.94159        0.79110       71.54213
C         79.57450       -0.68005       71.32801
O         80.23436       -1.31276       70.51536
C         79.50176        1.65737       70.31813
C         79.85372        3.15268       70.57890
C         77.99030        1.50460       70.04373
C         79.59036        4.07082       69.38723
H         81.92153        1.33024       70.97675
H         79.45325        1.23713       72.42828
H         80.05368        1.29953       69.42019
H         80.93177        3.26023       70.80673
H         79.29025        3.52649       71.46245
H         77.39396        1.87894       70.90265
H         77.69150        2.05971       69.13324
H         77.72315        0.44461       69.85553
H         79.92188        5.09985       69.64157
H         80.16540        3.72153       68.50364
H         78.51243        4.11881       69.13822
N         78.56687       -1.32866       71.98948
C         77.59945       -0.69610       72.88124
C         77.90015       -0.96578       74.33756
O         77.26859       -0.33626       75.17369
C         76.15309       -1.12325       72.51788
C         75.82359       -2.58399       72.74439
O         76.64727       -3.36757       73.19004
O         74.58298       -3.02719       72.46671
H         78.46744       -2.34078       71.81615
H         77.62147        0.39764       72.75436
H         75.96331       -0.88149       71.44981
H         75.44148       -0.53108       73.13057
N         78.84522       -1.86887       74.73136
C         79.09464       -2.16309       76.12849
C         77.88556       -2.81724       76.75827
O         77.51848       -3.90801       76.34439
H         79.40547       -2.37644       74.03213
H         79.37225       -1.22162       76.64959
H         79.94972       -2.86678       76.21784
N         77.19570       -2.18213       77.74625
C         76.01933       -2.74626       78.40604
C         74.71413       -2.24746       77.79302
O         73.67292       -2.40705       78.41546
C         76.09424       -2.51085       79.93880
C         76.06733       -1.07181       80.40254
O         76.11158       -0.80852       81.72192
O         76.00541       -0.14258       79.61567
H         77.50001       -1.23398       78.00893
H         76.00166       -3.85134       78.27877
H         77.02688       -2.97629       80.32314
H         75.23632       -3.03023       80.41828
N         74.67210       -1.72035       76.53365
C         73.44566       -1.26207       75.90181
C         72.89810        0.01250       76.50962
O         71.83293        0.43795       76.08860
H         75.52567       -1.68910       75.97022
H         72.68943       -2.07399       75.95066
H         73.64395       -1.04435       74.82974
N         73.58683        0.70404       77.46324
C         73.14935        1.95491       78.06752
C         73.01672        3.04236       77.01615
O         72.07662        3.82507       77.05344
C         71.88378        1.74450       78.92879
C         72.16024        0.75258       80.07493
C         70.93722        0.41522       80.89070
N         71.04893       -0.42832       81.94252
O         69.84454        0.88488       80.60689
H         74.50532        0.36285       77.76559
H         73.96496        2.29800       78.74444
H         71.06063        1.36363       78.28812
H         71.55955        2.71112       79.37317
H         72.92997        1.19180       80.74689
H         72.55436       -0.20029       79.66381
H         71.96296       -0.83192       82.19652
H         70.22243       -0.67892       82.50495
N         73.96789        3.14678       76.04574
C         74.02634        4.21817       75.06043
C         75.37759        4.92165       75.09306
O         75.53976        5.85568       74.32123
C         73.75695        3.68068       73.62111
C         74.72690        2.55961       73.20384
C         72.30667        3.21021       73.46707
H         74.69774        2.41977       76.00521
H         73.25860        4.99334       75.28032
H         73.88694        4.52509       72.90706
H         74.53834        2.26572       72.14913
H         75.78144        2.89869       73.27823
H         74.59155        1.65985       73.83883
H         71.61142        4.04489       73.70180
H         72.11850        2.89779       72.41706
H         72.08847        2.35707       74.14051
N         76.40432        4.52140       75.91093
C         77.73839        5.10053       75.82210
C         78.14225        5.72086       77.15838
O         77.49999        5.47160       78.16723
C         78.70069        3.97405       75.37776
C         80.02954        4.40939       74.81417
N         80.95731        3.48060       74.51481
O         80.27314        5.58176       74.58424
H         76.28015        3.74923       76.57817
H         77.73762        5.89907       75.05140
H         78.22347        3.38831       74.56094
H         78.85165        3.28319       76.23673
H         80.78334        2.47961       74.68437
H         81.85756        3.78220       74.12544
N         79.16622        6.61749       77.20385
C         79.56703        7.34000       78.40868
C         80.46058        8.52525       78.06034
O         80.93346        8.63033       76.93837
C         80.28367        6.43231       79.44225
C         81.58172        5.84454       78.91751
C         82.82185        6.31507       79.38853
C         81.56714        4.81720       77.95921
C         84.01793        5.77856       78.89706
C         82.76269        4.27578       77.47608
C         83.99112        4.75575       77.93830
O         85.13440        4.22575       77.45765
H         79.59932        6.87134       76.31602
H         78.64456        7.77129       78.85594
H         79.62475        5.61045       79.79415
H         80.50060        7.06007       80.33409
H         82.86646        7.10636       80.12641
H         80.63082        4.42370       77.59507
H         84.96441        6.15746       79.26187
H         82.73447        3.48024       76.74225
H         86.00631        4.53081       77.74655
N         80.69728        9.49226       78.99238
C         81.52052       10.65895       78.71108
C         82.61666       10.74395       79.75441
O         82.30001       11.08249       80.88637
C         80.65056       11.93537       78.73736
C         79.52791       11.89619       77.68847
C         78.68012       13.13345       77.76744
O         78.58513       13.87740       76.80464
O         78.00567       13.41928       78.89832
H         80.25219        9.41640       79.91911
H         81.96110       10.58705       77.70299
H         81.29463       12.82144       78.54324
H         80.19185       12.04564       79.74562
H         78.86798       11.01930       77.86222
H         79.97506       11.80621       76.67416
N         83.91964       10.40575       79.52567
C         84.46533        9.82480       78.30051
C         84.47951       10.81141       77.14846
O         85.04760       11.88667       77.28456
C         85.90414        9.33421       78.58063
C         86.53041        8.58439       77.39669
C         87.90175        8.09300       77.76215
O         88.86677        8.97046       78.09879
O         88.14859        6.89786       77.75951
H         84.55489       10.48603       80.33670
H         83.86708        8.92319       78.03867
H         85.86702        8.63402       79.44524
H         86.54578       10.19945       78.86108
H         86.61720        9.25231       76.51348
H         85.88243        7.72164       77.12625
N         83.91683       10.47621       75.95417
C         83.96902       11.34983       74.80271
H         85.02756       11.55547       74.53292
H         83.47623       10.86126       73.93484
H         83.44752       12.30444       75.02229
H         83.46142        9.55718       75.84546
Ca        88.07438        3.33643       73.99014
O         89.57035        0.63138       73.40012
H         88.93709        0.58807       72.64007
H         88.99298        0.68858       74.20240
O         89.51701        3.58225       76.55788
H         88.64959        3.96457       76.84406
H         89.41167        2.60626       76.68801
O         86.61356        6.05475       74.88118
H         87.26485        5.68473       75.52786
H         85.76444        5.59233       75.09319
O         89.99842        6.13183       73.92291
H         90.94203        5.99135       74.18808
H         90.04873        6.74050       73.14360
O         91.24685        3.24980       73.32408
H         91.29457        3.21396       72.33571
H         92.19064        3.30887       73.61731
O         87.29591        5.78822       71.78243
H         87.88409        6.56914       71.62525
H         86.41227        6.18225       71.99315

Ca 1.0



