%chk=apoCaM-CA-Ng.loop2.water2.frame955.chk
%nprocshared=20
%mem=10GB
%nosave
#b3lyp/svp scf=(tight,noincore,xqc) Test 
#IOP(5/87=12) Density=Current Pop=(MK,readradii) iop(6/33=2) iop(6/42=6)

apoCaM-CA-Ng.loop2.water2.frame955 

   -2  1 
C         75.79591       84.93898       30.94232
C         74.49851       84.30499       31.34519
O         74.05464       83.39526       30.65867
H         76.59373       84.16608       30.93552
H         75.69963       85.37060       29.92457
H         76.09112       85.74369       31.64730
N         73.83220       84.72480       32.45986
C         72.59211       84.10422       32.91203
C         72.85900       82.63935       33.19290
O         72.23296       81.79740       32.56421
C         72.03424       84.84618       34.14592
C         70.68952       84.31930       34.57365
O         69.71112       85.04931       34.54902
O         70.55699       83.04953       35.00240
H         74.22986       85.50255       33.00917
H         71.83378       84.19936       32.10081
H         71.92028       85.92047       33.87736
H         72.74197       84.78263       34.99926
N         73.81962       82.26772       34.08976
C         74.21983       80.87910       34.28732
C         75.26778       80.76912       35.39686
O         76.30913       81.39496       35.24863
C         74.84852       80.31587       32.99990
H         74.30235       83.00608       34.62493
H         73.31801       80.28398       34.48886
H         75.74139       80.91042       32.70765
H         75.15813       79.26091       33.16108
H         74.13639       80.32665       32.15178
N         75.15124       79.97317       36.50497
C         73.99725       79.15806       36.87866
C         73.60186       79.40955       38.32939
O         74.28975       80.13952       39.02948
C         74.28534       77.67936       36.55267
C         75.50823       77.15047       37.23830
O         75.54616       77.08062       38.57586
O         76.46776       76.77076       36.58574
H         75.97827       79.91232       37.12089
H         73.10481       79.43553       36.30036
H         74.43632       77.60008       35.45265
H         73.41502       77.04422       36.82005
N         72.43535       78.89754       38.81422
C         71.90029       79.22586       40.12726
C         71.33364       78.00487       40.81486
O         70.11726       77.93168       40.91983
H         71.83668       78.34947       38.17719
H         71.05024       79.92067       39.94738
H         72.62112       79.76585       40.77510
N         72.08642       76.98008       41.30476
C         73.54283       76.93211       41.34258
C         74.06541       77.94654       42.35168
O         73.60185       77.92641       43.48436
C         73.98213       75.50017       41.74575
C         75.46118       75.22526       41.61692
N         75.94957       74.00664       41.94049
O         76.22137       76.08200       41.20070
H         71.56936       76.17311       41.69117
H         73.92996       77.11917       40.32665
H         73.47402       74.77545       41.07280
H         73.65770       75.29163       42.78884
H         75.32373       73.26384       42.28330
H         76.95530       73.80322       41.84577
N         75.04520       78.84155       42.02788
C         75.53633       79.85294       42.95919
C         76.95613       79.61035       43.44178
O         77.42316       80.40360       44.24535
H         75.46618       78.80269       41.08830
H         74.90413       79.88808       43.87251
H         75.46489       80.84983       42.47417
N         77.68565       78.52637       43.04789
C         79.00265       78.18986       43.58975
C         80.05136       78.16256       42.48832
O         79.72674       78.40472       41.33716
C         78.91914       76.81305       44.30423
C         77.95413       76.84803       45.49095
O         78.49588       75.81519       43.41026
H         77.28450       77.87647       42.36551
H         79.33453       78.94656       44.33330
H         79.91020       76.54009       44.73465
H         79.30868       75.45687       42.96951
H         77.93760       75.85471       45.98869
H         78.28604       77.60621       46.23175
H         76.92231       77.09011       45.15933
N         81.34923       77.86019       42.79075
C         82.41050       77.74630       41.79557
C         82.86908       76.29659       41.80551
O         83.40817       75.84890       42.80659
C         83.55033       78.74978       42.13352
C         84.79837       78.61545       41.22388
C         83.01498       80.19508       42.13136
C         84.55343       78.88172       39.73950
H         81.59874       77.67241       43.77252
H         82.01431       77.98631       40.78592
H         83.89934       78.53410       43.16841
H         85.21863       77.59251       41.32822
H         85.57459       79.32717       41.58171
H         82.61184       80.47512       41.13602
H         82.19695       80.31154       42.87344
H         83.82124       80.90622       42.40954
H         85.50988       78.76761       39.18906
H         83.83221       78.14849       39.33064
H         84.18503       79.91415       39.56968
N         82.56306       75.47934       40.75421
C         82.71609       74.02802       40.80493
C         83.25370       73.40054       39.51926
O         83.37597       72.17982       39.52051
C         81.34359       73.41693       41.16971
C         80.27201       73.72144       40.15541
O         79.19671       74.44735       40.51236
O         80.36665       73.31096       39.00983
H         82.02312       75.87725       39.98261
H         83.41609       73.74805       41.62220
H         81.03224       73.83137       42.15362
H         81.42916       72.31503       41.28832
N         83.56334       74.10560       38.38722
C         84.02602       73.44350       37.16252
C         84.24448       74.44383       36.02049
O         85.01503       75.37394       36.23425
C         85.38853       72.72957       37.38947
C         85.79966       71.96501       36.15109
C         86.78870       72.47696       35.29466
C         85.17517       70.74705       35.82841
C         87.13675       71.78890       34.12879
C         85.53742       70.05437       34.66858
C         86.51399       70.57754       33.81708
H         83.44167       75.13012       38.37939
H         83.26467       72.68551       36.89010
H         85.38980       72.01995       38.24032
H         86.14464       73.50742       37.63543
H         87.27180       73.42004       35.51652
H         84.41117       70.33426       36.47584
H         87.88668       72.19783       33.46451
H         85.05748       69.11470       34.42653
H         86.78669       70.04586       32.91463
N         83.72698       74.28834       34.75543
C         84.16710       75.08254       33.60731
C         83.91073       76.57740       33.68167
O         84.43184       77.30683       32.85098
C         83.38923       74.49091       32.42914
C         83.26488       73.04166       32.84131
C         82.90648       73.17196       34.31812
H         85.26084       74.89801       33.50377
H         82.35360       74.90595       32.42626
H         83.84797       74.67192       31.43413
H         82.54560       72.43980       32.24649
H         84.27558       72.57904       32.76204
H         81.83737       73.44859       34.45095
H         83.12748       72.20526       34.80558
N         83.07198       77.09411       34.61598
C         82.74840       78.51834       34.72531
C         83.92911       79.38118       35.16177
O         83.77508       80.59493       35.17612
C         81.56071       78.67265       35.69982
C         81.93627       78.24622       37.13183
C         80.75216       77.67778       37.84496
O         79.68334       78.42122       38.15704
O         80.73861       76.48999       38.12032
H         82.58092       76.42506       35.22379
H         82.40699       78.86261       33.72351
H         80.76968       77.99856       35.29878
H         81.13618       79.70063       35.71192
H         82.40393       79.08899       37.68249
H         82.69012       77.43303       37.11265
N         85.12261       78.83966       35.54711
C         86.26365       79.62658       35.96889
H         87.12761       79.39999       35.30957
H         86.06794       80.71812       35.92962
H         86.53217       79.35471       37.01066
H         85.24799       77.82052       35.56286
Ca        78.15635       77.21717       39.29498
O         77.46536       79.97443       39.61806
H         77.96571       80.38717       38.87053
H         76.81342       80.66457       39.89438
O         77.04014       74.18042       38.13479
H         76.28778       73.68878       37.71985
H         77.61568       73.47199       38.51657

Ca 1.0



