%chk=apoCaM-CA-Ng.loop4.water4.frame238.chk
%nprocshared=20
%mem=10GB
%nosave
#b3lyp/svp scf=(tight,noincore,xqc) Test 
#IOP(5/87=12) Density=Current Pop=(MK,readradii) iop(6/33=2) iop(6/42=6)

apoCaM-CA-Ng.loop4.water4.frame238 

   -3  1 
C         14.78151       36.38770       89.67748
C         13.81689       37.52976       89.56282
O         13.12626       37.80440       90.53196
H         15.49575       36.59183       90.50332
H         14.22605       35.45304       89.90062
H         15.35717       36.24594       88.73926
N         13.73850       38.26264       88.41301
C         12.86031       39.41278       88.22661
C         13.15719       40.47534       89.26958
O         12.30544       40.80578       90.07414
C         11.37792       39.00311       88.01151
C         10.69436       38.24143       89.10886
O         10.43673       38.82867       90.28728
O         10.30654       37.10070       88.91037
H         14.37049       38.02436       87.63377
H         13.11874       39.88717       87.25256
H         11.35666       38.36923       87.09705
H         10.77587       39.91248       87.79412
N         14.39690       41.04979       89.25887
C         14.91997       42.12576       90.10306
C         14.20501       43.45059       89.86464
O         14.82564       44.33568       89.29032
C         15.04629       41.75113       91.60508
C         15.71461       42.89410       92.42613
C         15.83035       40.43633       91.77359
C         17.11283       43.31653       91.94189
H         15.05587       40.69790       88.54598
H         15.96004       42.27348       89.73818
H         14.03342       41.58696       92.03308
H         15.78580       42.57784       93.48941
H         15.06511       43.79448       92.39740
H         15.29710       39.59967       91.27721
H         16.84583       40.50776       91.33225
H         15.92995       40.18101       92.84795
H         17.09379       43.71303       90.90822
H         17.49012       44.14457       92.57461
H         17.83192       42.47334       91.99640
N         12.91804       43.67686       90.25781
C         12.22605       44.91856       89.94689
C         12.78784       46.07984       90.77060
O         13.34855       46.97210       90.14981
C         10.69141       44.74008       90.01586
C         10.22312       43.70084       89.02837
O          9.57218       42.60330       89.45812
O         10.42744       43.84744       87.83365
H         12.39643       42.94815       90.75352
H         12.41982       45.15357       88.87376
H         10.19545       45.70331       89.76902
H         10.35752       44.41076       91.01174
N         12.73577       46.18566       92.13546
C         12.06480       45.24671       93.02531
C         12.15046       45.63246       94.49756
O         12.79130       46.62592       94.81034
H         13.19290       47.01521       92.54313
H         12.49677       44.23601       92.88839
H         11.00630       45.28155       92.77037
N         11.54219       44.92612       95.50364
C         10.72979       43.71575       95.39647
C         11.53429       42.54980       94.82410
O         11.24058       42.11661       93.71935
C          9.38639       43.98233       94.66361
C          8.36003       42.89468       94.86456
O          7.26096       43.00543       94.34558
O          8.61898       41.81755       95.63018
H         11.67069       45.28626       96.46320
H         10.41717       43.44264       96.42783
H          9.52518       44.09547       93.57724
H          8.94177       44.91685       95.06850
N         12.53431       41.92582       95.51576
C         12.90920       42.21792       96.88544
C         13.75801       43.45091       97.02296
O         14.20099       44.01958       96.03520
H         12.98540       41.11577       95.07969
H         13.51555       41.37988       97.29244
H         11.99517       42.28094       97.51119
N         14.01784       43.91968       98.27195
C         14.79947       45.12333       98.53112
C         16.28118       44.92192       98.21957
O         17.01160       45.90479       98.21831
C         14.55885       45.53495      100.00419
C         15.17615       46.87142      100.43600
C         14.70500       47.22473      101.82736
N         15.57905       47.35349      102.85201
O         13.51160       47.39572      102.03099
H         13.58334       43.42455       99.06713
H         14.39429       45.93223       97.88237
H         14.92025       44.73004      100.68342
H         13.45542       45.62134      100.12716
H         14.85850       47.67933       99.74263
H         16.28266       46.79810      100.41501
H         16.58881       47.21393      102.71042
H         15.24084       47.58961      103.79707
N         16.80907       43.68249       97.98609
C         18.23088       43.43536       97.76638
C         18.86106       42.71753       98.94828
O         20.06194       42.50587       98.90788
C         18.49458       42.66899       96.44268
C         18.16461       43.54235       95.23548
C         17.74075       41.33275       96.35405
H         16.19235       42.85943       98.04027
H         18.78842       44.39734       97.70399
H         19.58437       42.45099       96.38005
H         18.44440       42.99067       94.31632
H         17.08579       43.80219       95.20855
H         18.76124       44.47941       95.26246
H         18.02054       40.80221       95.41868
H         17.99644       40.67924       97.21392
H         16.64351       41.49328       96.33321
N         18.14104       42.39090      100.06579
C         18.77906       41.89720      101.28002
C         18.20685       40.57399      101.75744
O         18.69217       40.10014      102.77894
C         18.57904       42.95880      102.38500
C         19.03117       44.33421      101.95359
N         20.31687       44.57535      101.61042
O         18.21588       45.24317      101.90771
H         17.13420       42.58947      100.11576
H         19.86920       41.75316      101.12496
H         19.13026       42.66453      103.30446
H         17.49579       43.01290      102.63424
H         21.02205       43.82583      101.63915
H         20.60630       45.51844      101.31033
N         17.18681       39.91887      101.12656
C         16.51263       38.76763      101.72736
C         15.75255       37.95226      100.69455
O         14.88079       38.50166      100.03366
C         15.46818       39.24559      102.77192
C         16.04961       39.96339      103.96156
C         16.88956       39.28448      104.86004
C         15.74672       41.31586      104.19183
C         17.42718       39.95241      105.96387
C         16.28652       41.98177      105.29519
C         17.12807       41.30505      106.18382
O         17.64052       41.96223      107.24335
H         16.81183       40.29241      100.24023
H         17.25961       38.10022      102.21188
H         14.89900       38.37380      103.16192
H         14.74234       39.90956      102.25033
H         17.12915       38.24015      104.70309
H         15.09918       41.85891      103.51439
H         18.07573       39.41783      106.64613
H         16.05021       43.02573      105.45826
H         18.22527       41.53052      107.88232
N         15.96137       36.60294      100.60151
C         15.15753       35.66323       99.81775
C         15.48308       35.62219       98.33181
O         15.56931       34.51534       97.81391
C         13.64246       35.76835      100.09972
C         13.33943       35.56713      101.59556
C         11.86504       35.60590      101.87024
O         11.35940       36.53117      102.70794
O         11.12050       34.78717      101.35470
H         16.66327       36.18132      101.23002
H         15.43102       34.64248      100.17633
H         13.12454       34.96805       99.52552
H         13.23602       36.74072       99.75418
H         13.83774       36.36147      102.18970
H         13.73345       34.58259      101.93025
N         15.70419       36.73476       97.56998
C         16.02704       36.63330       96.14605
C         17.32369       35.86686       95.90022
O         17.57460       35.51873       94.75422
C         16.18600       38.02216       95.48716
C         14.98137       38.96713       95.58217
C         13.76927       38.47025       94.85484
O         13.32578       39.14957       93.78116
O         13.15075       37.50005       95.26007
H         15.64730       37.66259       97.99747
H         15.19945       36.07766       95.65338
H         16.42881       37.89272       94.40829
H         17.04826       38.53000       95.97018
H         15.28876       39.92512       95.11310
H         14.71586       39.19291       96.63489
N         18.20887       35.59854       96.90575
C         19.44713       34.87499       96.70720
H         20.30062       35.53075       96.97820
H         19.45584       33.98175       97.36597
H         19.58021       34.53773       95.65826
H         18.02667       35.93296       97.86197
Ca        11.31829       38.73742       92.87267
O          8.91249       40.82331       92.00725
H          9.34632       41.71144       91.96564
H          8.09827       40.97018       92.55022
O          9.75241       38.94108       95.44296
H          9.53113       39.58656       94.72548
H         10.13945       39.49590       96.16566
O          8.33380       37.70859       92.54281
H          7.99121       37.75622       93.47044
H          7.72337       38.28955       92.02316
O         11.05923       35.75636       93.05586
H         11.34824       34.95193       92.55773
H         11.90528       36.16924       93.36012

Ca 1.0



