%chk=apoCaM-CA-Ng.loop2.water2.frame932.chk
%nprocshared=20
%mem=10GB
%nosave
#b3lyp/svp scf=(tight,noincore,xqc) Test 
#IOP(5/87=12) Density=Current Pop=(MK,readradii) iop(6/33=2) iop(6/42=6)

apoCaM-CA-Ng.loop2.water2.frame932 

   -2  1 
C          5.42934        1.73989       70.24226
C          5.62405        0.27126       70.01008
O          5.94057       -0.12584       68.89792
H          4.39337        1.93255       70.58916
H          6.14310        2.08460       71.02161
H          5.61672        2.31780       69.31261
N          5.48706       -0.59467       71.05065
C          5.74255       -2.02765       70.95829
C          7.02609       -2.38374       71.71673
O          7.35631       -3.55837       71.79868
C          4.52046       -2.80668       71.49507
C          3.23871       -2.54202       70.73855
O          3.20404       -1.77770       69.78633
O          2.10896       -3.16783       71.11944
H          5.24828       -0.21018       71.97895
H          5.90626       -2.34071       69.90260
H          4.35835       -2.54565       72.56268
H          4.72519       -3.89706       71.42664
N          7.83974       -1.40426       72.22014
C          9.13712       -1.61555       72.85253
C          9.15696       -0.87695       74.19735
O          8.81404        0.29748       74.19367
C         10.19676       -1.04114       71.90316
H          7.57736       -0.41818       72.08812
H          9.35677       -2.69596       72.96406
H         10.01379        0.03695       71.71023
H         11.22045       -1.15486       72.30561
H         10.15006       -1.58227       70.93217
N          9.49669       -1.44023       75.40092
C         10.03492       -2.78520       75.58235
C          9.97841       -3.22774       77.03833
O         10.11215       -2.40589       77.93275
C         11.48853       -2.86366       75.05786
C         12.52215       -2.19579       75.93795
O         13.51235       -2.82739       76.26722
O         12.38277       -0.93660       76.39586
H          9.36977       -0.84887       76.23681
H          9.39071       -3.48513       75.00934
H         11.54303       -2.41899       74.05280
H         11.78208       -3.93040       74.95083
N          9.80933       -4.54192       77.33793
C          9.74926       -5.07112       78.69004
C         10.82984       -6.10795       78.85667
O         10.50795       -7.28506       78.78374
H          9.70636       -5.21523       76.56225
H          8.75650       -5.56109       78.79690
H          9.81762       -4.29598       79.48098
N         12.14764       -5.79730       79.02465
C         12.67912       -4.46057       79.28034
C         12.37890       -4.07261       80.72972
O         12.69636       -4.85444       81.61561
C         14.20876       -4.47557       79.03358
C         14.86399       -3.11667       79.08704
N         16.19298       -2.99725       78.87105
O         14.20113       -2.11665       79.29899
H         12.81675       -6.58413       79.01820
H         12.25816       -3.74050       78.55020
H         14.39251       -4.87275       78.01121
H         14.70239       -5.15123       79.76441
H         16.77066       -3.82673       78.67473
H         16.64539       -2.07225       78.89494
N         11.79712       -2.87945       81.04992
C         11.44577       -2.48849       82.41575
C         12.26426       -1.32380       82.95537
O         11.96488       -0.86304       84.04744
H         11.59112       -2.21256       80.29393
H         11.57702       -3.33074       83.12847
H         10.36976       -2.21319       82.42196
N         13.34053       -0.83580       82.28123
C         14.21211        0.23633       82.74937
C         14.30066        1.31473       81.69277
O         14.62298        1.00764       80.55456
C         15.63685       -0.31026       83.02459
C         15.68227       -1.14819       84.30376
O         16.08273       -1.07611       81.93352
H         13.59462       -1.27225       81.39252
H         13.84322        0.69265       83.69503
H         16.31750        0.56138       83.18139
H         17.07006       -1.14346       82.00717
H         15.00411       -2.02269       84.23526
H         16.72014       -1.50424       84.47955
H         15.38687       -0.51996       85.17222
N         14.08118        2.62107       82.01085
C         14.33066        3.69784       81.05576
C         15.82661        3.69397       80.77844
O         16.58421        3.84923       81.72842
C         13.83315        5.07402       81.60655
C         14.09156        6.19497       80.56080
C         12.32824        4.98858       81.95148
C         13.61731        7.58622       80.99449
H         13.80474        2.85209       82.97654
H         13.75904        3.49376       80.12504
H         14.38655        5.31857       82.54167
H         13.58373        5.94008       79.60610
H         15.18319        6.26461       80.36500
H         12.11939        4.20615       82.70702
H         11.96419        5.93055       82.40637
H         11.73193        4.76344       81.04242
H         13.88195        8.32665       80.21049
H         12.51452        7.62150       81.10937
H         14.09927        7.88541       81.94864
N         16.32869        3.47849       79.52333
C         17.76382        3.31233       79.28114
C         18.37826        4.54017       78.64703
O         19.59732        4.63250       78.62448
C         18.06554        2.08873       78.38477
C         17.17054        0.91876       78.65207
O         17.09831        0.41700       79.76003
O         16.43796        0.44783       77.62025
H         15.67733        3.40208       78.72866
H         18.27016        3.15756       80.25977
H         19.13674        1.80746       78.47898
H         17.88064        2.36901       77.32320
N         17.60406        5.50542       78.06913
C         18.16837        6.71169       77.48606
C         17.09055        7.47008       76.70369
O         16.08355        7.81698       77.30496
C         18.70693        7.62035       78.61409
C         19.25098        8.91608       78.06865
C         18.54796       10.11294       78.28351
C         20.44451        8.94123       77.32847
C         19.02425       11.31428       77.75583
C         20.92374       10.14867       76.81022
C         20.21188       11.33330       77.02073
H         16.58532        5.37134       78.01618
H         18.99531        6.41058       76.81696
H         19.49465        7.11938       79.21601
H         17.85832        7.82761       79.30329
H         17.62074       10.11275       78.84327
H         21.00212        8.02890       77.15501
H         18.46883       12.22911       77.91509
H         21.84470       10.16625       76.24225
H         20.57890       12.26621       76.61401
N         17.23453        7.80728       75.37889
C         16.28943        8.64705       74.64506
C         14.87936        8.11122       74.45594
O         14.09827        8.80402       73.81631
C         16.94536        8.81425       73.26966
C         18.41162        8.76795       73.61967
C         18.44070        7.60291       74.59842
H         16.24642        9.62730       75.17108
H         16.73994        7.91251       72.64589
H         16.61375        9.71638       72.71253
H         19.10131        8.66258       72.75653
H         18.66306        9.70324       74.17330
H         18.36418        6.62779       74.06776
H         19.38763        7.67854       75.16451
N         14.46564        6.90664       74.94835
C         13.11703        6.38989       74.71371
C         12.00788        7.28358       75.26640
O         10.85320        7.01715       74.96099
C         12.98028        4.95031       75.25424
C         13.08403        4.86294       76.78730
C         13.05342        3.43405       77.22766
O         13.92840        2.66541       76.86527
O         12.07031        2.99550       78.03271
H         15.13868        6.31417       75.45144
H         12.98193        6.34046       73.60991
H         13.78129        4.33411       74.78861
H         12.00146        4.52417       74.93888
H         12.23553        5.41117       77.25135
H         14.03061        5.31101       77.15234
N         12.26275        8.35718       76.06906
C         11.21064        9.23903       76.52429
H         10.46280        8.67268       77.11734
H         11.63999       10.04383       77.15832
H         10.71342        9.71058       75.64905
H         13.22238        8.57333       76.37032
Ca        14.24852       -0.10384       77.39404
O         14.65924        0.70377       74.52196
H         15.47177        0.22134       74.81829
H         14.07070       -0.00357       74.15643
O         11.16378        0.21878       79.20016
H         10.75346        1.10749       79.06421
H         10.39970       -0.35281       79.45997

Ca 1.0



