%chk=apoCaM-CA-Ng.loop2.water4.frame599.chk
%nprocshared=20
%mem=10GB
%nosave
#b3lyp/svp scf=(tight,noincore,xqc) Test 
#IOP(5/87=12) Density=Current Pop=(MK,readradii) iop(6/33=2) iop(6/42=6)

apoCaM-CA-Ng.loop2.water4.frame599 

   -2  1 
C         40.81898       90.55023       79.47303
C         39.36572       90.92506       79.36451
O         38.54738       90.05740       79.09736
H         41.45182       91.43259       79.70966
H         40.95735       89.79547       80.27456
H         41.16778       90.12529       78.50799
N         38.97438       92.21648       79.54458
C         37.59290       92.66938       79.41195
C         36.68913       92.04080       80.45797
O         36.95984       92.19379       81.64097
C         37.53403       94.20558       79.56340
C         36.13132       94.73252       79.42036
O         35.55176       95.39047       80.44295
O         35.50966       94.55861       78.38435
H         39.70295       92.91729       79.75446
H         37.23113       92.41819       78.39000
H         38.17257       94.67975       78.78713
H         37.93144       94.49524       80.56191
N         35.53777       91.40195       80.08888
C         34.55640       90.94210       81.07128
C         35.12001       89.80013       81.92131
O         36.14843       89.26382       81.53107
C         33.25843       90.53675       80.36749
H         35.31586       91.32743       79.08416
H         34.32187       91.82419       81.68336
H         32.46166       90.28377       81.08863
H         32.88814       91.39339       79.76319
H         33.43106       89.67047       79.69629
N         34.57914       89.35102       83.10048
C         33.38874       89.85590       83.80188
C         33.46324       91.34557       84.11774
O         34.51280       91.95597       83.96128
C         33.20365       89.09136       85.14964
C         34.46650       89.17130       85.98661
O         35.16468       90.32630       85.98156
O         34.97587       88.15341       86.42519
H         35.08997       88.57286       83.54786
H         32.49693       89.68657       83.16884
H         32.96430       88.02244       84.95265
H         32.34855       89.51423       85.71784
N         32.36800       91.99319       84.61299
C         32.38094       93.41075       84.93253
C         32.61036       94.25850       83.69943
O         32.67918       93.71485       82.60577
H         31.49542       91.46753       84.77306
H         33.18749       93.59962       85.66573
H         31.41186       93.69766       85.39197
N         32.77041       95.60821       83.75879
C         32.71841       96.42712       84.96601
C         34.09158       97.02784       85.26245
O         34.17843       97.93274       86.08101
C         31.66454       97.53854       84.74997
C         30.25321       97.02045       84.56816
N         29.24329       97.89042       84.34017
O         30.00948       95.82440       84.63082
H         32.96811       96.10035       82.87224
H         32.42295       95.85003       85.86756
H         31.94583       98.13305       83.85289
H         31.65400       98.21788       85.62930
H         29.42509       98.90282       84.28089
H         28.27739       97.55075       84.21898
N         35.22031       96.53383       84.67546
C         36.55625       97.06169       84.88787
C         36.99759       97.05453       86.33557
O         37.44961       98.08890       86.80526
H         35.15120       95.73189       84.03291
H         36.61794       98.09500       84.48117
H         37.27110       96.43369       84.31246
N         36.91890       95.92607       87.09925
C         37.45763       95.84100       88.46086
C         38.46110       94.69399       88.54201
O         38.70149       94.04559       87.53230
C         36.32482       95.72407       89.50842
C         35.36554       96.91528       89.42881
O         35.59764       94.53941       89.34309
H         36.47110       95.08866       86.69744
H         38.01494       96.76939       88.71464
H         36.76549       95.75895       90.53227
H         36.03096       93.84864       89.90968
H         34.84900       96.93914       88.44751
H         34.59593       96.83735       90.22517
H         35.91978       97.86874       89.56760
N         39.11491       94.40667       89.70861
C         40.17720       93.40660       89.79735
C         39.76741       92.26632       90.72707
O         39.52405       92.48608       91.90418
C         41.50208       94.08619       90.24762
C         42.64783       93.04566       90.37988
C         41.88212       95.19611       89.24255
C         43.94196       93.63291       90.94599
H         38.89157       94.94565       90.55750
H         40.37364       92.97553       88.79427
H         41.33076       94.55157       91.24355
H         42.85793       92.57672       89.39413
H         42.33759       92.24409       91.08302
H         41.07041       95.94754       89.15260
H         42.78166       95.75228       89.56994
H         42.07234       94.76170       88.23664
H         43.74985       94.09280       91.93890
H         44.69012       92.82221       91.07018
H         44.38073       94.39016       90.26666
N         39.70655       91.00079       90.22517
C         39.36145       89.78823       90.95313
C         40.50984       88.77399       90.91820
O         40.75814       88.15703       91.94289
C         38.10791       89.15800       90.31699
C         36.93357       90.09617       90.37085
O         36.47520       90.54063       91.55685
O         36.38732       90.45592       89.34089
H         39.89034       90.88718       89.23199
H         39.12113       90.01138       92.01676
H         37.83733       88.23178       90.86932
H         38.31748       88.88153       89.25901
N         41.21799       88.52230       89.77088
C         42.26245       87.50074       89.62108
C         42.74629       87.46736       88.15691
O         43.92835       87.66354       87.90693
C         43.43309       87.70336       90.62911
C         44.49792       86.62598       90.51695
C         45.84357       86.97764       90.30345
C         44.16129       85.26209       90.62651
C         46.82645       85.98737       90.19631
C         45.14566       84.27649       90.50591
C         46.47700       84.63834       90.29214
H         40.97776       89.06403       88.93529
H         41.80880       86.51615       89.84745
H         43.05111       87.65354       91.66619
H         43.87851       88.71229       90.48485
H         46.13508       88.01734       90.22464
H         43.13842       84.95371       90.79469
H         47.86029       86.26541       90.03680
H         44.87548       83.23058       90.57844
H         47.23761       83.87309       90.20255
N         41.87815       87.20910       87.12478
C         42.25056       87.08065       85.71150
C         42.80159       88.32084       85.00666
O         42.99738       88.24226       83.80120
C         40.92566       86.70571       85.03321
C         40.21322       85.93896       86.12118
C         40.49585       86.81894       87.32647
H         42.97236       86.23811       85.62468
H         40.33659       87.63383       84.85422
H         41.03658       86.17234       84.06534
H         39.13646       85.74374       85.93855
H         40.73780       84.96632       86.25890
H         39.86301       87.73240       87.31203
H         40.30934       86.23067       88.24703
N         43.06741       89.48735       85.66030
C         43.53086       90.70285       84.99462
C         44.97611       90.91584       85.38410
O         45.82854       90.96711       84.50881
C         42.66199       91.96776       85.31319
C         41.13061       91.70203       85.37026
C         40.74888       91.04526       86.68181
O         39.55531       90.45522       86.90681
O         41.56993       91.00190       87.58207
H         42.97999       89.50374       86.67404
H         43.47222       90.56549       83.89140
H         42.88470       92.71094       84.51589
H         42.96637       92.45310       86.26639
H         40.86475       91.06514       84.50195
H         40.55975       92.65274       85.30124
N         45.32650       90.96968       86.70272
C         46.69390       91.05554       87.16974
H         47.42320       91.12431       86.33640
H         46.80661       91.94463       87.82277
H         46.92906       90.14479       87.76262
H         44.59463       90.90086       87.42552
Ca        37.37240       90.60697       86.36302
O         37.41103       93.38636       84.85563
H         38.20583       93.70663       84.36015
H         36.64057       93.74274       84.34707
O         38.56588       90.40377       83.62267
H         38.44459       89.89950       82.78085
H         37.72185       90.90652       83.73795
O         37.95376       88.09154       85.44459
H         37.60822       87.74698       84.58479
H         37.43384       87.62039       86.14156
O         34.89100       92.46591       87.64162
H         34.56099       93.37056       87.41854
H         34.13019       92.02960       88.10051

Ca 1.0



