%chk=apoCaM-CA-Ng.loop4.water4.frame461.chk
%nprocshared=20
%mem=10GB
%nosave
#b3lyp/svp scf=(tight,noincore,xqc) Test 
#IOP(5/87=12) Density=Current Pop=(MK,readradii) iop(6/33=2) iop(6/42=6)

apoCaM-CA-Ng.loop4.water4.frame461 

   -3  1 
C         37.11328       45.00828       94.04224
C         36.79295       43.98559       95.08909
O         37.09764       42.82692       94.86652
H         38.20716       45.00035       93.84707
H         36.58041       44.75275       93.10174
H         36.81315       46.02679       94.36135
N         36.20205       44.33712       96.26909
C         35.89367       43.38678       97.33321
C         37.13959       42.68946       97.83279
O         37.25262       41.49207       97.68520
C         34.66802       42.47242       97.02605
C         34.46561       41.86733       95.64835
O         35.26500       40.93634       95.08141
O         33.47485       42.20954       95.02116
H         35.99550       45.33217       96.44225
H         35.54839       43.95441       98.22811
H         33.78299       43.13341       97.17590
H         34.58854       41.68486       97.80658
N         38.08386       43.41827       98.50056
C         39.31222       42.94161       99.14816
C         39.02360       42.02707      100.34059
O         39.25546       42.45407      101.46356
C         40.34618       42.34283       98.15327
C         41.71127       42.03061       98.83768
C         40.55201       43.27529       96.94677
C         42.44467       43.24339       99.43498
H         37.90580       44.43171       98.58546
H         39.77643       43.86031       99.56825
H         39.95118       41.38352       97.75447
H         42.38465       41.56511       98.08615
H         41.55948       41.28746       99.64917
H         41.30268       42.84337       96.25601
H         39.60496       43.39484       96.38123
H         40.89253       44.28241       97.26296
H         41.86275       43.71291      100.25372
H         43.41200       42.91365       99.86826
H         42.66752       44.00515       98.66041
N         38.51407       40.77016      100.18940
C         38.16284       39.90976      101.30871
C         39.41136       39.44210      102.05377
O         39.49777       39.76690      103.22956
C         37.22494       38.76782      100.85692
C         35.89271       39.27351      100.34649
O         35.61293       40.59202      100.29532
O         35.04577       38.47338       99.98389
H         38.34508       40.39941       99.25297
H         37.54557       40.49977      102.02690
H         37.01639       38.10750      101.72625
H         37.68713       38.17604      100.04874
N         40.45456       38.73915      101.50839
C         40.57896       38.25851      100.14021
C         39.90713       36.91140       99.94881
O         39.29794       36.42233      100.89049
H         41.26844       38.56439      102.11882
H         41.65698       38.07889       99.94713
H         40.25427       39.03629       99.42778
N         39.98333       36.19634       98.78465
C         40.72744       36.59366       97.58454
C         40.21023       37.90700       96.99788
O         39.10213       38.29124       97.34110
C         40.69749       35.44541       96.53209
C         39.32184       35.09223       96.00870
O         39.08872       35.16636       94.81363
O         38.36151       34.63007       96.83180
H         39.51884       35.27750       98.79156
H         41.77836       36.72934       97.90154
H         41.13704       34.53320       96.98731
H         41.33371       35.69821       95.66741
N         40.91672       38.68787       96.12119
C         42.26191       38.43968       95.61482
C         43.33882       38.54894       96.66489
O         43.04763       38.85379       97.81298
H         40.45410       39.54403       95.78182
H         42.50609       39.20503       94.85350
H         42.31342       37.46641       95.10226
N         44.63772       38.32181       96.31120
C         45.74923       38.39417       97.25267
C         46.72684       39.51960       96.92459
O         47.59663       39.76457       97.74901
C         46.39620       37.00038       97.43127
C         46.94180       36.31587       96.16394
C         48.13008       37.01589       95.57712
N         49.25597       37.17899       96.30822
O         48.08752       37.41555       94.42473
H         44.84005       38.07748       95.32999
H         45.36048       38.66404       98.25970
H         45.60533       36.33029       97.83352
H         47.19109       37.05718       98.20582
H         46.13517       36.21409       95.40732
H         47.26687       35.28881       96.43548
H         49.31814       36.82858       97.27389
H         50.07525       37.64974       95.91159
N         46.59623       40.30859       95.81124
C         47.32592       41.56864       95.64411
C         48.24230       41.61670       94.42315
O         48.89428       42.64109       94.26268
C         46.31105       42.75731       95.62195
C         45.49181       42.81119       96.92299
C         45.35701       42.71739       94.41248
H         45.88785       40.07436       95.10536
H         47.99630       41.73819       96.51541
H         46.88913       43.70635       95.55944
H         44.81673       43.69388       96.91792
H         44.86811       41.89936       97.04287
H         46.16761       42.89986       97.79978
H         44.70358       41.82187       94.43265
H         44.69838       43.61212       94.42027
H         45.92710       42.72394       93.46029
N         48.36924       40.58929       93.53038
C         49.24972       40.66592       92.36123
C         48.50124       40.53927       91.04527
O         49.15633       40.68400       90.02308
C         50.31588       39.54341       92.38380
C         51.30483       39.62991       93.51209
N         52.10511       40.70976       93.65773
O         51.42567       38.68747       94.27527
H         47.82519       39.72937       93.67466
H         49.76744       41.64850       92.32327
H         50.91732       39.58651       91.44934
H         49.80100       38.55788       92.40899
H         52.04436       41.50586       93.00797
H         52.80155       40.74006       94.41718
N         47.16767       40.24998       90.95709
C         46.53585       39.99916       89.65887
C         45.03291       39.85275       89.74278
O         44.52095       39.45527       90.77686
C         47.15005       38.73701       88.98450
C         47.25343       37.53901       89.92166
C         48.52525       37.08779       90.32340
C         46.11825       36.86630       90.41227
C         48.65796       36.00890       91.20200
C         46.25304       35.78398       91.28872
C         47.52055       35.35408       91.68992
O         47.63325       34.31433       92.54128
H         46.60392       40.17683       91.81442
H         46.70812       40.89162       89.01720
H         48.17251       39.00085       88.65007
H         46.60093       38.46750       88.05728
H         49.42170       37.57997       89.96802
H         45.12482       37.16369       90.12496
H         49.64615       35.68633       91.50514
H         45.36890       35.27938       91.65852
H         48.49266       33.98918       92.84593
N         44.28708       40.09332       88.61595
C         42.84273       39.91724       88.47103
C         42.01419       41.01521       89.13923
O         41.14055       41.54973       88.46834
C         42.39599       38.47952       88.80640
C         43.12749       37.46834       87.89785
C         42.70837       36.05602       88.17529
O         41.54708       35.71558       88.01710
O         43.62089       35.14836       88.57256
H         44.79366       40.37070       87.76150
H         42.60807       40.03082       87.38595
H         41.30270       38.39324       88.61868
H         42.57689       38.24329       89.87475
H         44.22355       37.55018       88.04569
H         42.91464       37.69662       86.83044
N         42.22740       41.44353       90.41751
C         41.43734       42.49946       91.04566
C         41.58010       43.83448       90.32826
O         40.79283       44.72851       90.60902
C         41.85792       42.71714       92.52352
C         41.79039       41.45568       93.39471
C         40.40468       40.90319       93.45291
O         40.17537       39.78200       93.03259
O         39.41044       41.63808       93.97921
H         42.96760       41.02075       90.96664
H         40.37064       42.18322       91.00593
H         41.21051       43.49882       92.98046
H         42.90658       43.08687       92.54727
H         42.12255       41.70164       94.42327
H         42.48636       40.68192       93.01491
N         42.57989       44.06843       89.43033
C         42.73006       45.34346       88.76660
H         43.62591       45.32306       88.11024
H         41.83458       45.55328       88.14483
H         42.86057       46.14986       89.51946
H         43.27869       43.34121       89.22250
Ca        37.23587       39.94181       95.57099
O         38.28592       37.75353       93.55270
H         39.09417       37.34009       93.15821
H         38.41405       37.66800       94.53050
O         35.33635       38.16660       93.77791
H         35.65729       37.27718       94.07171
H         34.59582       37.96981       93.15159
O         36.78215       40.96804       92.27537
H         36.47595       41.44176       91.46211
H         37.74109       40.79164       92.10816
O         35.91923       37.77226       97.14381
H         35.21031       38.40813       96.87274
H         36.53419       38.31552       97.69684

Ca 1.0



