%chk=apoCaM-CA-Ng.loop1.water2.frame1277.chk
%nprocshared=20
%mem=10GB
%nosave
#b3lyp/svp scf=(tight,noincore,xqc) Test 
#IOP(5/87=12) Density=Current Pop=(MK,readradii) iop(6/33=2) iop(6/42=6)

apoCaM-CA-Ng.loop1.water2.frame1277 

   0  1 
C         44.23544       25.53841       15.74284
C         45.30440       26.47165       15.26357
O         44.98015       27.48288       14.65858
H         43.22970       25.91134       15.45041
H         44.38807       24.53751       15.28808
H         44.27952       25.45413       16.84805
N         46.61669       26.20270       15.51593
C         47.68996       27.07070       15.04692
C         47.75059       27.07996       13.52115
O         48.02722       26.05884       12.90953
C         49.05289       26.71226       15.68515
C         49.56655       25.30900       15.46975
O         50.75065       24.96078       16.00680
O         48.92955       24.47700       14.84423
H         46.84397       25.37048       16.08042
H         47.46800       28.09950       15.41205
H         48.96653       26.86396       16.78304
H         49.81271       27.42948       15.30412
N         47.45592       28.22580       12.85068
C         47.43241       28.35261       11.39223
C         48.41690       29.39305       10.86160
O         49.21295       28.99517       10.02138
C         46.00371       28.57803       10.85524
C         45.13477       27.34554       11.16387
C         43.75089       27.38725       10.51174
C         42.96933       26.11528       10.88489
N         41.65499       26.08645       10.24742
H         47.18581       29.01573       13.43605
H         47.75256       27.39001       10.93063
H         46.06491       28.68046        9.74828
H         45.54762       29.50317       11.26685
H         45.01775       27.25177       12.25709
H         45.65300       26.43516       10.78792
H         43.86922       27.43683        9.40666
H         43.19393       28.28503       10.85598
H         42.84277       26.07105       11.99017
H         43.54394       25.21630       10.56569
H         41.09010       26.91316       10.54780
H         41.76173       26.08485        9.20706
H         41.15821       25.21229       10.53613
N         48.51237       30.70594       11.23821
C         47.78494       31.40744       12.29456
C         48.74182       31.62842       13.46859
O         49.91220       31.28276       13.35723
C         47.11485       32.68090       11.75439
C         48.04145       33.51387       10.93021
O         49.16380       34.02437       11.46492
O         47.79668       33.68331        9.74697
H         49.26778       31.24430       10.78474
H         46.94384       30.82232       12.67168
H         46.68614       33.28180       12.58530
H         46.27164       32.36747       11.09826
N         48.28647       32.07718       14.67459
C         49.10941       32.01126       15.87760
C         50.30629       32.93122       15.88514
O         50.43518       33.78831       15.02276
H         47.29408       32.33531       14.77692
H         49.47165       30.96361       15.97602
H         48.49856       32.23960       16.77636
N         51.26088       32.75093       16.84495
C         52.50378       33.50915       16.91301
C         52.90293       33.77144       18.35851
O         52.85460       32.84336       19.15365
C         53.63106       32.72331       16.21876
C         53.31533       32.57451       14.76309
O         53.05792       33.68910       14.06179
O         53.28327       31.48028       14.22435
H         51.15609       31.94310       17.47846
H         52.39668       34.46840       16.36541
H         53.79946       31.73337       16.69495
H         54.57381       33.31181       16.29207
N         53.42146       34.96171       18.77956
C         53.69557       36.08205       17.89960
C         52.48839       36.95174       17.65285
O         51.45005       36.76628       18.26979
H         53.76439       35.02551       19.75119
H         54.16451       35.72626       16.95784
H         54.44614       36.74355       18.38572
N         52.61620       37.99841       16.79457
C         51.63970       39.07494       16.64868
C         50.23247       38.68311       16.19276
O         49.40064       39.58028       16.20535
C         52.21504       40.20354       15.74299
C         52.50624       39.74885       14.30382
O         53.40067       40.69133       16.32002
H         53.52210       38.08733       16.30997
H         51.50507       39.51595       17.66156
H         51.45994       41.02444       15.70473
H         53.47461       41.65111       16.07661
H         52.87950       40.61090       13.71066
H         53.29095       38.96647       14.27282
H         51.58861       39.35659       13.81885
N         49.86260       37.43065       15.77831
C         48.48546       37.13842       15.36185
C         48.46196       36.93991       13.86532
O         49.12072       36.04380       13.36188
C         47.86979       35.92191       16.10977
C         47.94831       36.05217       17.65091
C         46.41319       35.67821       15.65707
C         47.23727       37.27369       18.24134
H         50.56634       36.68200       15.71099
H         47.82648       38.00139       15.58822
H         48.44260       35.01450       15.84367
H         49.01282       36.09078       17.95457
H         47.51139       35.13668       18.10705
H         45.98541       34.79840       16.18253
H         45.77371       36.56306       15.85793
H         46.36621       35.46707       14.56785
H         47.34764       37.25953       19.34573
H         47.68828       38.21535       17.86998
H         46.15420       37.26463       18.00532
N         47.71798       37.78283       13.09745
C         47.66424       37.74109       11.64438
C         48.30255       39.00107       11.04514
O         48.33222       39.11587        9.82710
C         46.20215       37.49456       11.17822
C         45.20636       38.57373       11.61974
O         45.75368       36.26112       11.68134
H         47.18228       38.52640       13.56810
H         48.25821       36.88776       11.26155
H         46.17658       37.47215       10.06282
H         46.06478       35.55861       11.05388
H         45.11833       38.61513       12.72541
H         45.50531       39.56975       11.23514
H         44.19751       38.32910       11.22181
N         48.86687       39.96836       11.83515
C         49.52783       41.17126       11.32897
C         50.77838       40.82021       10.53621
O         51.71055       40.27276       11.10882
C         49.90307       42.09282       12.52293
C         50.71393       43.32613       12.10957
O         48.72347       42.50328       13.16555
H         48.82934       39.86042       12.85797
H         48.81285       41.72426       10.67961
H         50.52711       41.50104       13.23116
H         48.97373       42.76726       14.08951
H         50.94269       43.93811       13.00739
H         51.68622       43.02187       11.66814
H         50.15030       43.94094       11.37860
N         50.86215       41.12913        9.20668
C         52.03508       40.89733        8.36132
C         52.53985       39.47341        8.54135
O         53.71274       39.27093        8.83174
C         53.15002       41.93191        8.66535
C         52.70920       43.40594        8.60671
C         52.22555       43.87593        7.22813
C         51.85112       45.36668        7.28448
N         51.38638       45.85067        5.98565
H         50.03254       41.53422        8.74684
H         51.72285       41.02938        7.30294
H         53.99509       41.77872        7.95773
H         53.53003       41.75424        9.69534
H         53.58624       44.02547        8.89805
H         51.90682       43.57877        9.35298
H         51.33224       43.29295        6.91979
H         53.03319       43.72476        6.47898
H         52.73740       45.96267        7.59858
H         51.04580       45.51702        8.03825
H         52.14501       45.75236        5.27269
H         50.54104       45.31486        5.68269
H         51.13226       46.86178        6.07110
N         51.65747       38.43989        8.50961
C         52.01764       37.11312        8.98725
C         50.76412       36.42225        9.50664
O         50.69015       36.24900       10.71411
C         52.83660       36.31761        7.94679
C         53.33141       34.97002        8.50129
C         54.45048       35.19732        9.47404
O         54.35315       34.85541       10.76359
O         55.47924       35.73056        9.09274
H         50.66453       38.66713        8.34902
H         52.66498       37.25526        9.88547
H         53.71387       36.91122        7.61081
H         52.24320       36.15250        7.03893
H         53.74162       34.35449        7.67392
H         52.48824       34.40562        8.95773
N         49.69798       36.05580        8.73618
C         49.62684       36.10477        7.29302
H         49.82665       37.12334        6.90915
H         50.31870       35.36019        6.85517
H         48.61273       35.79779        6.96142
H         48.86316       35.70613        9.21854
Ca        52.71421       33.84558       11.87358
O         52.21427       36.58973       13.29443
H         52.98187       36.87654       12.73854
H         52.57329       36.55715       14.21631
O         51.93005       31.21771       10.44713
H         52.71120       31.23069       11.05531
H         52.19162       31.80192        9.69161

Ca 1.0



