%chk=apoCaM-CA-Ng.loop2.water3.frame521.chk
%nprocshared=20
%mem=10GB
%nosave
#b3lyp/svp scf=(tight,noincore,xqc) Test 
#IOP(5/87=12) Density=Current Pop=(MK,readradii) iop(6/33=2) iop(6/42=6)

apoCaM-CA-Ng.loop2.water3.frame521 

   -2  1 
C         62.14977      103.48338       49.70770
C         62.51609      103.36003       48.25521
O         62.09207      104.19080       47.46498
H         61.04560      103.43280       49.81656
H         62.59527      102.66419       50.31169
H         62.51159      104.45294       50.10765
N         63.28857      102.32460       47.82525
C         63.63747      102.11637       46.42434
C         64.51600      103.24500       45.90727
O         65.57641      103.47626       46.46635
C         64.36778      100.76090       46.26530
C         64.65296      100.36813       44.83531
O         64.31941      101.07691       43.89843
O         65.27252       99.19927       44.58696
H         63.60818      101.63344       48.52244
H         62.69499      102.04964       45.83610
H         63.72863       99.96208       46.70044
H         65.32550      100.78446       46.82999
N         64.16387      103.94195       44.79068
C         65.03196      104.94717       44.18077
C         65.12180      106.21309       45.02833
O         64.18699      106.47542       45.77185
C         64.49512      105.30004       42.78629
H         63.28626      103.68386       44.31335
H         66.02893      104.49073       44.04133
H         64.45181      104.38017       42.16409
H         63.47358      105.72897       42.86092
H         65.13916      106.02987       42.26067
N         66.15439      107.11073       44.93059
C         67.36000      106.90834       44.12591
C         68.21840      105.77348       44.67438
O         67.95551      105.27992       45.76254
C         68.16304      108.22505       43.97198
C         68.69463      108.82559       45.24948
O         68.50443      108.22925       46.44138
O         69.30862      109.87956       45.20189
H         66.06330      107.99329       45.45622
H         67.04812      106.63432       43.10093
H         67.49684      108.97594       43.49216
H         69.02104      108.05546       43.28670
N         69.24078      105.27336       43.92428
C         70.04716      104.11733       44.30076
C         69.21954      102.84011       44.41886
O         68.00536      102.90800       44.30022
H         69.44381      105.71402       43.01434
H         70.57438      104.31190       45.25505
H         70.80519      103.97802       43.50342
N         69.77333      101.60933       44.63567
C         71.20519      101.32601       44.63462
C         71.81028      101.40474       46.03133
O         73.02754      101.47410       46.13338
C         71.42476       99.90911       44.05190
C         72.86751       99.58201       43.76974
N         73.54504      100.24681       42.80515
O         73.41908       98.68702       44.39233
H         69.12428      100.80592       44.66639
H         71.71066      102.05055       43.96538
H         70.87283       99.80414       43.09250
H         70.99855       99.16933       44.76734
H         73.08347      100.98150       42.24896
H         74.52507      100.00821       42.59397
N         71.03822      101.31863       47.15657
C         71.59817      101.29212       48.50300
C         72.15223      102.62298       48.97694
O         72.65358      102.67677       50.09066
H         70.02049      101.18659       47.06553
H         72.38407      100.50737       48.55382
H         70.79468      101.01262       49.21807
N         72.07581      103.74460       48.21032
C         72.53027      105.06709       48.64603
C         71.61001      105.63750       49.77881
O         70.50413      104.79949       49.92280
C         72.52789      106.02878       47.43196
C         73.45668      105.52433       46.30909
O         71.21802      106.17032       46.94168
H         71.64640      103.66852       47.28156
H         73.58631      105.00216       48.99246
H         72.91234      107.01271       47.77788
H         71.23270      106.90950       46.27917
H         73.13006      104.54376       45.90422
H         73.45937      106.24462       45.46493
H         74.49509      105.41767       46.68631
N         72.29650      105.78692       51.07495
C         71.44954      106.27650       52.20179
C         71.33836      107.80635       52.25612
O         72.36413      108.47215       52.26557
C         72.03435      105.74752       53.55333
C         71.19297      106.26552       54.75874
C         72.07393      104.20700       53.53110
C         71.65022      105.78231       56.13462
H         73.16482      106.36292       50.97917
H         70.42633      105.84609       52.13237
H         73.07709      106.11863       53.67146
H         70.13454      105.97256       54.62825
H         71.24724      107.37364       54.78803
H         72.68858      103.84133       52.68338
H         72.54410      103.80491       54.45067
H         71.04747      103.79172       53.43616
H         71.01118      106.25199       56.91320
H         71.53363      104.68472       56.23634
H         72.70557      106.07127       56.31792
N         70.11637      108.41030       52.43294
C         69.94488      109.84898       52.67381
C         69.35414      110.16364       54.04811
O         69.25231      111.34948       54.34186
C         68.97632      110.47823       51.65020
C         69.44161      110.39498       50.23857
O         68.74797      109.83913       49.40198
O         70.59321      110.98911       49.87263
H         69.27466      107.81822       52.45671
H         70.92842      110.36675       52.61877
H         68.84911      111.56089       51.87511
H         67.98267      109.98930       51.74333
N         68.92277      109.21470       54.93373
C         68.27841      109.57277       56.19769
C         66.93432      108.85617       56.31925
O         66.77408      108.04701       57.22694
C         69.25586      109.28210       57.36108
C         68.81274      109.92365       58.66015
C         68.64815      111.32202       58.73348
C         68.58548      109.15155       59.81194
C         68.25060      111.93035       59.92491
C         68.19378      109.76816       61.00743
C         68.02360      111.15489       61.06207
H         69.04161      108.21449       54.72229
H         68.07492      110.65951       56.22362
H         70.24272      109.73049       57.11364
H         69.40659      108.18462       57.46453
H         68.82944      111.94950       57.87049
H         68.71568      108.07717       59.78882
H         68.12325      113.00494       59.96490
H         68.02328      109.17236       61.89433
H         67.72014      111.63107       61.98552
N         65.90890      109.07502       55.43148
C         64.62533      108.37588       55.45387
C         64.71253      106.86403       55.30342
O         63.69364      106.19840       55.40943
C         63.90990      108.90046       54.19874
C         64.46015      110.29757       54.07188
C         65.93641      110.08891       54.39650
H         64.11177      108.65598       56.40043
H         64.28723      108.35457       53.30143
H         62.80408      108.80274       54.21292
H         64.27224      110.79429       53.09605
H         64.00084      110.90191       54.88514
H         66.50905      109.69840       53.53342
H         66.35266      111.05903       54.73710
N         65.88604      106.27045       54.95780
C         66.03808      104.85644       54.70201
C         66.22843      104.20308       56.04908
O         65.45922      103.31976       56.40325
C         67.24799      104.61171       53.76251
C         67.07846      105.01033       52.26455
C         66.80722      106.45968       51.87286
O         66.88919      106.83820       50.58777
O         66.56782      107.32201       52.68618
H         66.73430      106.83804       54.87244
H         65.14294      104.43387       54.19148
H         67.44417      103.51584       53.75566
H         68.15049      105.09903       54.17480
H         66.26454      104.39527       51.82461
H         68.02554      104.70600       51.77051
N         67.20475      104.64867       56.88819
C         67.36423      104.14114       58.23058
H         68.19050      104.68228       58.73954
H         66.42930      104.31092       58.80767
H         67.59868      103.05766       58.20466
H         67.83338      105.40740       56.58145
Ca        68.70099      106.06565       49.58629
O         67.16189      103.82845       48.74026
H         67.00199      104.65203       48.21392
H         66.48004      103.86525       49.45569
O         66.18139      108.00548       48.20705
H         65.91827      108.84566       47.75555
H         65.53352      107.32955       47.88664
O         70.97951      108.59679       48.35523
H         70.98944      108.27045       49.28979
H         71.82642      109.09911       48.25942

Ca 1.0



