%chk=apoCaM-CA-Ng.loop1.water6.frame538.chk
%nprocshared=20
%mem=10GB
%nosave
#b3lyp/svp scf=(tight,noincore,xqc) Test 
#IOP(5/87=12) Density=Current Pop=(MK,readradii) iop(6/33=2) iop(6/42=6)

apoCaM-CA-Ng.loop1.water6.frame538 

   0  1 
C         96.01001       16.73654       29.15789
C         96.07105       16.52098       27.67347
O         97.16335       16.45761       27.12930
H         95.47887       17.68944       29.36823
H         95.46527       15.90095       29.64355
H         97.03127       16.80193       29.59153
N         94.91326       16.42756       26.95354
C         94.81689       16.30442       25.49590
C         95.38371       14.98187       24.98792
O         96.27121       14.42737       25.62114
C         95.51229       17.51846       24.82655
C         95.18740       17.77415       23.37678
O         95.75749       18.68248       22.79518
O         94.24331       17.07673       22.72214
H         94.02429       16.49933       27.47316
H         93.73009       16.33190       25.25737
H         96.61217       17.39752       24.92281
H         95.21791       18.44172       25.36969
N         94.90935       14.41023       23.83615
C         95.47712       13.21035       23.22287
C         95.27949       11.97328       24.08192
O         95.79075       10.92368       23.71547
C         96.94939       13.47973       22.80072
C         96.97148       14.63170       21.77150
C         98.35867       15.13071       21.35663
C         99.19439       14.10222       20.58774
N        100.44402       14.71086       20.12740
H         94.12408       14.84817       23.34164
H         94.92488       12.98496       22.28377
H         97.38753       12.57023       22.33663
H         97.57250       13.74183       23.68072
H         96.46329       15.51176       22.21274
H         96.40132       14.32661       20.86613
H         98.91337       15.48039       22.25403
H         98.19583       16.00539       20.68832
H         98.62090       13.74325       19.70429
H         99.42390       13.23268       21.24046
H        101.00349       14.00191       19.60165
H        100.23741       15.51431       19.48890
H        101.00281       15.05099       20.94363
N         94.50753       12.00509       25.20997
C         94.24254       10.84216       26.03400
C         92.75185       10.86857       26.40995
O         92.38582       11.78568       27.13328
C         95.17854       10.94986       27.26364
C         95.25008        9.70597       28.08769
O         94.56636        8.62345       27.70148
O         95.97316        9.65987       29.06831
H         94.07953       12.88722       25.51910
H         94.53222        9.93166       25.47922
H         94.88304       11.81752       27.89243
H         96.21348       11.12928       26.89730
N         91.78693       10.01500       25.94133
C         91.95626        8.87065       25.05831
C         91.28741        7.67599       25.69021
O         90.37124        7.11214       25.10765
H         90.81323       10.21578       26.22611
H         93.01241        8.63737       24.85233
H         91.45365        9.08956       24.09025
N         91.64915        7.30227       26.94391
C         90.92687        6.31099       27.72871
C         91.11554        6.55320       29.22149
O         92.00824        7.27776       29.63547
C         91.23884        4.85911       27.28507
C         92.71105        4.52693       27.28335
O         93.25980        4.21588       26.23784
O         93.44651        4.61278       28.40639
H         92.36928        7.86941       27.39875
H         89.84137        6.50248       27.57229
H         90.85610        4.71962       26.25070
H         90.70024        4.14032       27.93853
N         90.20983        6.03915       30.09024
C         90.22034        6.27765       31.52283
C         89.92123        7.70395       31.97204
O         89.71803        7.84893       33.16926
H         89.46178        5.43393       29.71828
H         91.17879        5.93847       31.96770
H         89.41103        5.65018       31.95576
N         89.86805        8.79745       31.14256
C         89.49173       10.12399       31.64222
C         90.69180       10.97200       32.02150
O         91.81704       10.63865       31.68282
C         88.55049       10.86828       30.65636
C         89.25317       11.31969       29.36589
O         87.46326       10.04814       30.31816
H         90.08222        8.70142       30.14434
H         88.91852        9.98553       32.58518
H         88.17385       11.80137       31.13729
H         86.86612       10.02254       31.11034
H         90.08458       12.02025       29.59608
H         89.65704       10.46157       28.79210
H         88.53045       11.85978       28.71762
N         90.49944       12.09063       32.77391
C         91.56925       12.96742       33.24622
C         92.54167       12.16189       34.09907
O         93.72947       12.18476       33.82503
C         90.97004       14.17846       34.04332
C         90.05719       15.03098       33.11188
C         92.08787       15.05396       34.65011
C         89.33024       16.17820       33.81671
H         89.53057       12.29703       33.05985
H         92.12318       13.38625       32.37500
H         90.35723       13.78314       34.88464
H         89.26175       14.39835       32.67113
H         90.65792       15.44436       32.27306
H         92.72457       15.48726       33.85017
H         91.66676       15.87623       35.26270
H         92.72759       14.46397       35.33856
H         88.70823       15.78753       34.64977
H         90.03795       16.93778       34.20301
H         88.66370       16.68729       33.08814
N         92.08120       11.45178       35.16785
C         92.93360       10.67454       36.07886
C         92.18998       10.37523       37.37945
O         91.01999       10.69589       37.50725
C         93.46766        9.35874       35.43136
C         92.34746        8.45743       34.88381
O         94.43103        9.62929       34.44535
H         91.07177       11.51290       35.35203
H         93.79063       11.30976       36.39044
H         93.99728        8.76417       36.20473
H         93.96418        9.79219       33.58932
H         92.77815        7.51650       34.48099
H         91.62054        8.19593       35.68028
H         91.81350        8.97622       34.06231
N         92.85523        9.79071       38.42013
C         92.23597        9.56249       39.71751
C         92.99354       10.35712       40.76992
O         92.38637       11.21045       41.40536
C         92.13702        8.03980       40.00233
C         91.32537        7.73520       41.27432
O         93.39958        7.41780       40.02759
H         93.84227        9.52675       38.30214
H         91.18720        9.93300       39.71369
H         91.56658        7.58145       39.16431
H         93.74192        7.42885       40.95959
H         91.23115        6.63573       41.40373
H         91.81781        8.16125       42.17361
H         90.30383        8.16348       41.18778
N         94.31425       10.12689       41.01727
C         95.07197       10.79599       42.06537
C         96.41271       11.27846       41.54051
O         97.15681       10.47811       40.98703
C         95.27819        9.79493       43.21288
C         96.05503       10.40742       44.39302
C         96.09104        9.49068       45.62346
C         96.77660        8.14056       45.36345
N         96.80683        7.33504       46.58289
H         94.79830        9.38556       40.49011
H         94.49969       11.65027       42.49211
H         95.80873        8.89823       42.82807
H         94.27191        9.48376       43.57166
H         95.55614       11.35264       44.70092
H         97.09364       10.65115       44.07934
H         95.05067        9.31455       45.97379
H         96.64226       10.02403       46.42853
H         97.81641        8.31226       45.00713
H         96.22411        7.57464       44.58348
H         97.26423        6.41804       46.37612
H         97.35240        7.82825       47.32628
H         95.83194        7.15802       46.91895
N         96.83040       12.55567       41.77182
C         98.17186       13.01248       41.42799
C         98.39933       13.00751       39.91745
O         99.31356       12.31505       39.49368
C         98.49236       14.36190       42.11411
C         99.94429       14.80912       41.86608
C        100.30975       16.05618       42.62725
O        101.43588       16.51458       42.52144
O         99.42042       16.67112       43.43251
H         96.20514       13.19439       42.28839
H         98.89387       12.29587       41.88577
H         98.35580       14.21683       43.20944
H         97.79838       15.16257       41.80558
H        100.09174       15.00190       40.78184
H        100.63704       13.99910       42.18251
N         97.64518       13.70103       39.01450
C         96.50519       14.53015       39.33796
H         95.72597       13.93539       39.85586
H         96.80690       15.40092       39.94495
H         96.06255       14.93138       38.40160
H         97.88663       13.61156       38.01482
Ca        94.47692        6.58728       28.62307
O         97.07523        7.75567       31.15350
H         97.79880        7.99439       30.52183
H         97.52091        7.20660       31.84614
O         94.23854        8.90916       31.13468
H         93.32922        8.65152       31.42663
H         94.27519        9.89286       31.24475
O         96.45827        4.70910       30.55006
H         97.40607        4.76937       30.83001
H         96.10305        3.93013       31.04714
O         94.72514        6.41263       32.80281
H         95.12284        7.26271       33.11676
H         94.59899        5.88052       33.62770
O         93.25800        4.33794       31.17427
H         93.41380        3.44131       30.78451
H         92.89942        4.15604       32.07792
O         97.43413        6.93027       27.94185
H         97.32986        7.75109       27.39839
H         97.15073        6.19742       27.33967

Ca 1.0



