%chk=apoCaM-CA-Ng.loop2.water5.frame1280.chk
%nprocshared=20
%mem=10GB
%nosave
#b3lyp/svp scf=(tight,noincore,xqc) Test 
#IOP(5/87=12) Density=Current Pop=(MK,readradii) iop(6/33=2) iop(6/42=6)

apoCaM-CA-Ng.loop2.water5.frame1280 

   -2  1 
C         48.45424       46.90776       12.69291
C         47.27504       47.11271       11.78423
O         47.12774       46.34708       10.84287
H         49.10567       47.80529       12.68765
H         48.09563       46.70570       13.72461
H         49.05565       46.03528       12.35823
N         46.35209       48.09471       11.98628
C         46.39321       49.08045       13.06051
C         46.31704       50.49825       12.53200
O         46.05895       50.70080       11.35694
C         45.24469       48.82552       14.06890
C         43.93487       48.29535       13.49773
O         43.51927       47.23363       13.93533
O         43.20892       48.88892       12.51835
H         45.55081       48.13552       11.34141
H         47.35272       49.03088       13.61630
H         45.06712       49.72588       14.69509
H         45.60926       48.03812       14.76693
N         46.56471       51.53972       13.38328
C         46.33371       52.94580       13.06898
C         46.86094       53.35422       11.70477
O         48.03354       53.18396       11.40448
C         46.89878       53.85618       14.16294
H         46.88122       51.31249       14.33914
H         45.23148       53.09542       13.08059
H         48.00273       53.75897       14.22418
H         46.63971       54.91522       13.94349
H         46.45467       53.59241       15.14690
N         45.98568       53.91752       10.83118
C         46.26336       54.26587        9.43963
C         45.29084       55.34007        8.96812
O         44.46531       55.78325        9.75282
C         46.21615       52.98633        8.55705
C         45.03575       52.06383        8.79333
O         44.12159       52.33273        9.74737
O         45.00456       50.98470        8.22439
H         45.02598       54.06523       11.17757
H         47.26728       54.73478        9.35439
H         47.11443       52.38243        8.80742
H         46.28614       53.24990        7.48060
N         45.35416       55.86056        7.70828
C         44.40333       56.87105        7.26570
C         42.98664       56.32633        7.19538
O         42.05535       57.11737        7.15205
H         46.08839       55.54810        7.05619
H         44.67804       57.26322        6.26361
H         44.44391       57.72119        7.98265
N         42.74985       54.98209        7.13833
C         41.41476       54.39511        7.07188
C         40.71130       54.39916        8.43517
O         39.59710       53.90079        8.51127
C         41.54722       52.93936        6.55711
C         40.21455       52.29323        6.26303
N         39.82388       51.17764        6.92102
O         39.48115       52.78375        5.41763
H         43.55709       54.34411        7.07489
H         40.81613       54.95614        6.31960
H         42.12090       52.34182        7.30012
H         42.12456       52.94168        5.60630
H         40.42164       50.75307        7.64153
H         38.91459       50.73894        6.71548
N         41.29620       54.91453        9.55752
C         40.73332       54.79333       10.89199
C         40.28776       56.12355       11.45094
O         40.41933       57.13074       10.76993
H         42.19577       55.39077        9.49290
H         41.49977       54.33185       11.54734
H         39.85039       54.13307       10.88643
N         39.67740       56.22453       12.66895
C         39.46559       55.10997       13.58839
C         38.03677       54.61416       13.45790
O         37.10955       55.39788       13.60430
C         39.79478       55.54520       15.03642
C         39.66629       54.37938       16.02408
O         41.11293       56.02859       15.10066
H         39.30356       57.14678       12.94414
H         40.15390       54.27497       13.34908
H         39.07880       56.33795       15.36218
H         41.07302       57.01103       14.96162
H         38.63453       53.96922       16.02642
H         40.37582       53.56658       15.75658
H         39.90130       54.72885       17.05193
N         37.80183       53.29699       13.19104
C         36.47945       52.70749       12.99405
C         36.20540       51.74765       14.14756
O         37.09874       50.97465       14.46318
C         36.45178       51.96240       11.62694
C         36.85217       52.87692       10.43960
C         35.08962       51.29660       11.36487
C         35.97494       54.11613       10.23791
H         38.61244       52.66088       13.12587
H         35.71237       53.50050       12.97773
H         37.20828       51.14544       11.66258
H         36.84697       52.27910        9.50253
H         37.88917       53.22106       10.59277
H         34.27482       52.04645       11.32070
H         35.11727       50.74207       10.40318
H         34.84997       50.56465       12.16432
H         36.35791       54.69478        9.37110
H         34.92365       53.83517       10.02976
H         36.01160       54.78189       11.12352
N         35.04116       51.72177       14.86889
C         33.82170       52.47200       14.57460
C         32.57953       51.60539       14.77757
O         32.35828       51.12396       15.88045
C         33.76229       53.76962       15.41018
C         34.01235       53.59602       16.88803
O         34.96281       54.15918       17.40759
O         33.18945       52.85791       17.65462
H         35.01123       51.09034       15.68557
H         33.80042       52.79802       13.51840
H         32.77784       54.26290       15.25152
H         34.54316       54.45630       15.01656
N         31.69936       51.38272       13.75456
C         30.40515       50.72925       13.96335
C         29.78770       50.30459       12.63044
O         29.77603       51.13028       11.72241
C         29.44988       51.74013       14.65083
C         28.22201       51.06954       15.21376
C         26.94821       51.27670       14.65684
C         28.35404       50.22843       16.33264
C         25.82968       50.63793       15.20686
C         27.23491       49.60037       16.88241
C         25.97348       49.80205       16.31868
H         31.92062       51.76622       12.82213
H         30.55672       49.84072       14.61258
H         29.17957       52.53065       13.91401
H         29.94742       52.25676       15.49898
H         26.82025       51.91986       13.79528
H         29.32633       50.06533       16.78102
H         24.84970       50.79030       14.77326
H         27.34779       48.95776       17.74593
H         25.10824       49.31156       16.74575
N         29.20267       49.08362       12.41340
C         28.96279       48.05104       13.41559
C         30.14987       47.12357       13.61764
O         30.02322       46.20031       14.41368
C         27.75726       47.30457       12.83245
C         28.08251       47.30941       11.35292
C         28.56009       48.74508       11.15695
H         28.65722       48.47088       14.39040
H         27.54895       46.30942       13.28039
H         26.85098       47.94084       12.96977
H         28.94232       46.61856       11.19939
H         27.25812       47.00587       10.67381
H         29.24917       48.80796       10.28627
H         27.69910       49.43480       11.01250
N         31.32801       47.30066       12.95750
C         32.50379       46.46680       13.16083
C         32.94557       45.87806       11.82479
O         33.11271       46.64462       10.88551
C         33.60759       47.34512       13.76859
C         34.83491       46.52271       14.17944
C         35.87774       47.40450       14.79352
O         36.39255       48.29208       14.13426
O         36.25672       47.21645       16.07190
H         31.42402       48.08729       12.29780
H         32.29044       45.66534       13.89856
H         33.20107       47.83260       14.68356
H         33.89201       48.14415       13.04810
H         35.27469       46.00750       13.29933
H         34.52351       45.75526       14.92208
N         33.18461       44.54995       11.62757
C         33.10598       43.54574       12.66581
H         33.82522       43.78460       13.47736
H         32.07599       43.48376       13.07187
H         33.38236       42.55358       12.24815
H         33.47624       44.23772       10.68797
Ca        43.41095       50.65752       11.10509
O         40.30801       51.33089       10.58143
H         40.76840       51.81352        9.85032
H         39.50354       50.94148       10.15588
O         42.51262       49.37491        7.91779
H         42.89414       49.61052        7.03561
H         41.90915       48.61212        7.73227
O         40.94170       48.40131       10.60692
H         40.26808       48.15399        9.92507
H         41.09066       47.57062       11.12446
O         43.76979       47.53477        9.60996
H         43.95025       46.68610       10.08572
H         44.60234       47.72590        9.10844
O         42.01587       52.22551       13.00966
H         42.54595       52.72307       13.68091
H         41.21907       51.90345       13.50009

Ca 1.0



