%chk=apoCaM-CA-Ng.loop4.water7.frame850.chk
%nprocshared=20
%mem=10GB
%nosave
#b3lyp/svp scf=(tight,noincore,xqc) Test 
#IOP(5/87=12) Density=Current Pop=(MK,readradii) iop(6/33=2) iop(6/42=6)

apoCaM-CA-Ng.loop4.water7.frame850 

   -3  1 
C         68.78399       73.52494       73.76055
C         68.69965       74.17782       72.41310
O         69.66111       74.13009       71.65957
H         68.64083       74.28851       74.55342
H         67.98699       72.75578       73.84990
H         69.76922       73.03351       73.90327
N         67.54194       74.78859       72.03605
C         67.31682       75.42494       70.74354
C         67.56517       74.43056       69.61799
O         68.30155       74.73075       68.68664
C         68.16227       76.71910       70.62249
C         67.85053       77.56299       69.40904
O         68.53640       78.70406       69.20883
O         66.98264       77.24031       68.61224
H         66.74804       74.77250       72.69555
H         66.24405       75.72132       70.71123
H         69.24200       76.45867       70.60715
H         67.97219       77.35191       71.51574
N         67.01015       73.18695       69.67099
C         67.24204       72.20007       68.61803
C         66.49976       72.60843       67.34697
O         65.57976       73.40898       67.44937
C         66.84544       70.75566       69.06815
C         65.33950       70.63512       69.44379
C         67.76498       70.30130       70.21838
C         64.89023       69.20075       69.73096
H         66.46378       72.93822       70.50673
H         68.33499       72.20527       68.41799
H         67.03870       70.07252       68.21614
H         64.72230       71.00108       68.59662
H         65.09861       71.25007       70.33500
H         67.61936       70.92675       71.12390
H         67.58584       69.24072       70.48453
H         68.82821       70.37477       69.90406
H         65.41021       68.77790       70.61387
H         63.80182       69.19504       69.95332
H         65.07420       68.55549       68.84646
N         66.79537       72.12700       66.10260
C         67.91572       71.26429       65.74924
C         68.76385       72.01709       64.73038
O         68.85877       71.60078       63.58319
C         67.36959       69.92673       65.20046
C         68.44885       68.91540       64.89469
O         68.13655       67.81991       64.45771
O         69.75174       69.19210       65.10698
H         66.19489       72.43828       65.32157
H         68.54794       71.02392       66.62562
H         66.77183       70.11735       64.28249
H         66.69606       69.47438       65.95889
N         69.39215       73.17018       65.09364
C         70.13337       74.00936       64.16272
C         71.60588       74.11427       64.49122
O         72.27695       74.90029       63.83761
H         69.32208       73.48779       66.07324
H         69.68524       75.02557       64.20171
H         70.04908       73.64649       63.11638
N         72.18926       73.35305       65.46173
C         73.60020       73.44975       65.81736
C         74.33834       72.16064       65.49886
O         75.36614       72.23759       64.83839
C         73.78009       73.91047       67.28407
C         73.19257       73.01872       68.34677
O         71.99272       72.80190       68.38445
O         73.98243       72.52044       69.31714
H         71.61411       72.66949       65.97002
H         74.09864       74.24922       65.22253
H         73.31425       74.91420       67.39031
H         74.87005       74.02794       67.47859
N         73.88538       70.93639       65.90306
C         74.64511       69.71813       65.65013
C         75.87754       69.62317       66.53503
O         76.68178       68.72507       66.33640
H         72.98268       70.85701       66.39270
H         74.92210       69.68063       64.57355
H         74.01863       68.82692       65.86951
N         76.04752       70.48400       67.57852
C         77.14328       70.47607       68.53365
C         77.21846       69.15796       69.28139
O         78.29080       68.58744       69.43013
C         78.46557       70.93869       67.89196
C         78.28118       72.31777       67.22640
C         79.55402       72.91910       66.69156
N         79.51085       74.11986       66.06911
O         80.62361       72.34120       66.81934
H         75.32945       71.19154       67.76006
H         76.89261       71.23709       69.30855
H         78.81790       70.20280       67.13738
H         79.22940       71.02131       68.69664
H         77.85744       73.03093       67.96685
H         77.56589       72.21912       66.38275
H         78.61534       74.61772       65.95194
H         80.37051       74.55366       65.70237
N         76.07538       68.64087       69.80899
C         76.01197       67.47319       70.67939
C         75.36909       67.87717       71.99525
O         75.95955       67.61564       73.03308
C         75.30025       66.25809       70.01434
C         73.86033       66.52164       69.55003
C         76.13588       65.73334       68.83732
H         75.19538       69.13082       69.59466
H         77.03711       67.10826       70.92127
H         75.26533       65.43885       70.76833
H         73.20713       66.78886       70.40259
H         73.82876       67.32282       68.78245
H         73.43556       65.59539       69.10657
H         76.21294       66.49322       68.03265
H         77.15948       65.46889       69.18149
H         75.67566       64.81196       68.42013
N         74.18908       68.57069       72.02716
C         73.54278       68.99533       73.26025
C         73.67254       70.50597       73.40097
O         73.89631       71.19276       72.41502
C         72.08958       68.48202       73.25228
C         71.36346       68.66804       74.56146
N         70.95643       67.59104       75.27554
O         71.12370       69.79210       74.97465
H         73.73318       68.84916       71.14783
H         74.06942       68.53635       74.12500
H         72.13188       67.39357       73.02775
H         71.51386       68.96733       72.43385
H         71.14291       66.63273       74.94405
H         70.45477       67.71155       76.16740
N         73.72248       71.05692       74.64646
C         74.08623       72.45197       74.89032
C         74.33073       72.66485       76.37243
O         73.61983       72.09212       77.18269
C         73.03058       73.46657       74.38653
C         73.59486       74.87483       74.44066
C         73.07808       75.83875       75.32359
C         74.67080       75.22619       73.60377
C         73.64166       77.12048       75.38046
C         75.22510       76.50736       73.65561
C         74.71876       77.45726       74.54613
O         75.27529       78.68514       74.59034
H         73.60522       70.42047       75.44799
H         75.04593       72.62612       74.35701
H         72.11565       73.37034       75.01209
H         72.73956       73.26550       73.33476
H         72.25194       75.59745       75.97813
H         75.08322       74.50567       72.90865
H         73.24402       77.85010       76.07485
H         76.05374       76.75963       73.00508
H         74.96417       79.37286       75.19581
N         75.32608       73.49345       76.79209
C         75.64645       73.70847       78.19369
C         75.40432       75.17358       78.52188
O         76.33805       75.95517       78.41411
C         77.10507       73.23956       78.42869
C         77.53843       73.18133       79.90645
C         77.68355       74.52660       80.55459
O         78.50090       75.32823       80.12983
O         76.93321       74.84474       81.62637
H         75.89136       73.99083       76.08752
H         75.02798       73.06932       78.84801
H         77.82203       73.84528       77.83145
H         77.16620       72.19372       78.05337
H         78.52786       72.67827       79.96360
H         76.80867       72.56290       80.47268
N         74.17856       75.67860       78.85956
C         72.93250       74.92133       78.99412
C         72.99813       73.86628       80.08341
O         73.54218       74.12417       81.14877
C         71.72728       75.85830       79.25288
C         71.80021       76.65109       80.57165
C         70.58571       77.51227       80.73413
O         70.69723       78.72563       80.79750
O         69.36744       76.94733       80.82729
H         74.13608       76.69874       79.00420
H         72.71344       74.42615       78.02533
H         70.80182       75.23917       79.25656
H         71.64956       76.57465       78.40495
H         72.70394       77.29432       80.58273
H         71.84611       75.96612       81.44250
N         72.42450       72.64796       79.88152
C         72.44771       71.60313       80.87987
H         71.95134       71.95378       81.80933
H         71.90358       70.71044       80.50271
H         73.49672       71.31374       81.09980
H         71.93534       72.45673       78.99455
Ca        67.80736       78.85953       79.12778
O         67.88870       78.70633       76.00926
H         67.29711       79.49690       75.93403
H         68.80566       79.07931       75.98413
O         66.25382       77.22961       81.46282
H         66.92407       77.14632       82.18696
H         66.35937       76.40146       80.93025
O         68.18816       75.96437       78.15517
H         68.39035       75.33937       77.41475
H         67.82425       75.38974       78.87483
O         64.99458       78.35413       77.97506
H         65.03062       77.74123       77.19828
H         64.82195       77.76294       78.75046
O         65.69155       80.79604       80.30338
H         64.81589       81.06496       79.92812
H         66.32834       81.46990       79.95553
O         68.97017       81.59393       78.68734
H         69.24224       82.33583       79.28368
H         69.51549       81.71547       77.87006
O         68.55093       80.43992       81.86501
H         68.82851       79.80866       82.57564
H         67.86777       81.01281       82.29458

Ca 1.0



