%chk=apoCaM-CA-Ng.loop1.water5.frame637.chk
%nprocshared=20
%mem=10GB
%nosave
#b3lyp/svp scf=(tight,noincore,xqc) Test 
#IOP(5/87=12) Density=Current Pop=(MK,readradii) iop(6/33=2) iop(6/42=6)

apoCaM-CA-Ng.loop1.water5.frame637 

   0  1 
C         -8.74887       30.49446       24.54851
C         -9.83540       29.63062       25.12575
O        -10.14699       28.60557       24.53759
H         -7.81457       29.90007       24.46522
H         -9.04042       30.85596       23.54190
H         -8.54008       31.37454       25.19262
N        -10.44010       29.97692       26.29592
C        -11.45518       29.16327       26.95801
C        -12.74577       29.93570       27.19100
O        -12.73911       30.91266       27.92373
C        -10.93287       28.57822       28.30064
C        -10.40145       29.55082       29.33527
O        -10.08801       30.81992       29.01085
O        -10.12250       29.13790       30.44966
H        -10.14014       30.85237       26.73790
H        -11.70316       28.28037       26.33027
H        -10.12422       27.84526       28.09322
H        -11.77755       28.01615       28.75850
N        -13.92147       29.50024       26.64926
C        -15.21467       30.06672       27.02549
C        -15.45591       29.80168       28.50385
O        -15.33056       28.66225       28.93261
C        -16.37426       29.44697       26.21756
C        -16.34777       29.83828       24.73035
C        -17.61580       29.32368       24.02432
C        -17.70578       29.69825       22.53475
N        -17.79342       31.14548       22.32033
H        -13.90408       28.69473       26.00536
H        -15.22867       31.16153       26.82741
H        -17.32138       29.84657       26.64117
H        -16.38388       28.34021       26.32962
H        -15.44108       29.42630       24.23798
H        -16.31639       30.94372       24.66610
H        -18.51740       29.72272       24.53914
H        -17.63486       28.21477       24.10114
H        -18.62256       29.22503       22.11827
H        -16.83861       29.28043       21.98400
H        -16.92030       31.62633       22.62841
H        -17.91988       31.32989       21.29884
H        -18.61417       31.53813       22.83605
N        -15.83310       30.81067       29.33717
C        -16.03065       30.62963       30.77385
C        -16.92942       31.73839       31.32553
O        -16.48794       32.51019       32.16588
C        -14.65436       30.54103       31.48001
C        -13.76047       31.74257       31.28850
O        -14.10315       32.69349       30.60197
O        -12.55652       31.76258       31.88971
H        -16.00627       31.74125       28.92917
H        -16.56223       29.67478       30.97539
H        -14.10582       29.65325       31.09990
H        -14.82085       30.39760       32.56887
N        -18.21365       31.91594       30.89208
C        -18.89917       31.04689       29.94517
C        -18.97521       31.64471       28.55942
O        -19.50042       30.97979       27.67779
H        -18.74039       32.72971       31.24763
H        -19.91164       30.81288       30.33936
H        -18.37774       30.07851       29.83367
N        -18.43586       32.86401       28.27384
C        -18.35857       33.42611       26.93073
C        -16.90735       33.72331       26.60156
O        -16.16843       34.10304       27.50198
C        -19.15747       34.73674       26.86740
C        -20.60144       34.53104       27.22782
O        -21.30208       33.77807       26.57037
O        -21.12985       35.18383       28.28065
H        -18.03137       33.42890       29.03527
H        -18.77674       32.72762       26.17099
H        -19.10073       35.15297       25.83756
H        -18.71192       35.47657       27.56828
N        -16.42317       33.62218       25.33191
C        -15.04460       33.99216       25.04496
C        -14.65028       33.75083       23.60723
O        -15.31227       34.24263       22.70376
H        -17.04854       33.31019       24.57232
H        -14.37332       33.40229       25.70663
H        -14.90712       35.06863       25.27939
N        -13.54747       32.99535       23.33949
C        -13.08155       32.63968       22.00275
C        -11.63828       33.08136       21.78040
O        -11.01789       33.62009       22.68786
C        -13.21774       31.10628       21.81911
C        -12.41503       30.30022       22.85322
O        -14.57108       30.76002       21.91387
H        -13.01046       32.63172       24.13993
H        -13.70643       33.13515       21.22581
H        -12.85085       30.84112       20.80226
H        -14.66801       29.87523       21.47570
H        -12.52264       29.21529       22.65243
H        -11.34042       30.56382       22.79622
H        -12.78096       30.47769       23.88586
N        -11.02977       32.84265       20.58185
C         -9.63219       33.16920       20.30972
C         -9.44985       34.67565       20.33217
O         -8.59589       35.16262       21.05882
C         -9.14452       32.56890       18.94884
C         -9.40675       31.03850       18.81375
C         -7.64287       32.85986       18.73671
C         -8.81968       30.17137       19.93202
H        -11.58420       32.39228       19.84123
H         -8.99635       32.71065       21.09944
H         -9.69648       33.05692       18.11484
H         -8.99699       30.68928       17.84030
H        -10.49641       30.83954       18.77744
H         -7.02845       32.41783       19.54895
H         -7.29922       32.44282       17.76598
H         -7.44750       33.95191       18.71580
H         -9.05694       29.10572       19.72841
H         -7.71781       30.27325       19.99018
H         -9.27099       30.43311       20.91116
N        -10.25961       35.47241       19.57808
C        -10.16812       36.93000       19.54571
C        -10.02951       37.39513       18.09735
O        -10.04274       36.56802       17.19528
C        -11.41090       37.52366       20.26999
C        -11.43033       37.08815       21.74205
O        -11.38678       38.92575       20.23885
H        -11.01280       35.02744       19.03013
H         -9.26156       37.27989       20.08668
H        -12.32890       37.15517       19.75512
H        -12.30533       39.23827       20.45011
H        -11.49796       35.98845       21.82931
H        -10.50670       37.43585       22.25563
H        -12.30750       37.52606       22.26178
N         -9.87552       38.71850       17.80539
C         -9.70967       39.24008       16.45655
C         -8.41020       40.02977       16.39671
O         -7.53428       39.66607       15.62432
C        -10.96678       40.06016       16.05668
C        -10.86414       40.63481       14.64006
O        -11.20618       41.09943       16.97036
H         -9.86444       39.40139       18.57254
H         -9.64043       38.40700       15.72063
H        -11.82566       39.34636       16.07988
H        -12.18163       41.28599       16.95157
H        -11.80899       41.15871       14.37974
H        -10.02932       41.36377       14.57104
H        -10.70138       39.82073       13.90263
N         -8.22345       41.12636       17.18676
C         -7.02709       41.95709       17.17254
C         -6.47361       42.08545       18.58225
O         -7.24762       42.31983       19.50178
C         -7.40629       43.33919       16.62040
C         -6.16902       44.22224       16.40207
C         -6.56771       45.58027       15.82276
C         -5.33047       46.43911       15.53770
N         -5.71843       47.74979       15.01971
H         -8.98471       41.42206       17.81391
H         -6.25450       41.53539       16.49147
H         -8.12945       43.83824       17.30314
H         -7.90077       43.19534       15.63367
H         -5.48207       43.70791       15.69322
H         -5.63432       44.38138       17.36358
H         -7.22642       46.10371       16.54967
H         -7.12794       45.43008       14.87356
H         -4.68738       45.92258       14.78976
H         -4.74239       46.57399       16.47266
H         -6.27105       47.64058       14.13835
H         -6.28917       48.25938       15.73298
H         -4.85730       48.30568       14.81442
N         -5.13265       42.01770       18.82207
C         -4.58177       42.15989       20.16710
C         -4.99512       40.98740       21.04792
O         -5.62097       41.24706       22.06578
C         -3.04539       42.34981       20.18071
C         -2.62143       43.67118       19.51896
C         -1.13543       43.86806       19.62174
O         -0.63907       44.92428       20.29461
O         -0.37082       43.07589       19.09442
H         -4.49238       41.90836       18.02103
H         -4.99222       43.09314       20.61973
H         -2.51716       41.50526       19.69876
H         -2.71468       42.39236       21.24321
H         -3.12935       44.51593       20.03512
H         -2.91499       43.68693       18.44852
N         -4.71156       39.67630       20.78187
C         -4.02690       39.16093       19.61249
H         -3.10368       38.63290       19.92942
H         -4.69155       38.44029       19.09264
H         -3.75096       39.93072       18.87770
H         -5.02245       38.97032       21.46709
Ca       -11.26960       32.67826       29.49997
O        -10.45312       33.47643       26.49207
H         -9.49407       33.27953       26.64195
H        -10.57880       33.37575       25.51552
O        -10.15153       35.68544       28.51611
H        -10.32123       36.35423       29.22585
H         -9.16598       35.59887       28.48387
O        -13.07732       35.12002       28.07431
H        -12.78246       35.40981       27.17451
H        -13.51772       34.24696       27.92208
O         -8.67767       33.49661       30.36627
H         -8.51511       34.35397       30.83329
H         -8.08294       32.84545       30.81519
O        -11.88741       34.98134       31.25053
H        -12.73471       34.79038       31.72513
H        -11.42918       35.65081       31.81712

Ca 1.0



