%chk=apoCaM-CA-Ng.loop3.water2.frame972.chk
%nprocshared=20
%mem=10GB
%nosave
#b3lyp/svp scf=(tight,noincore,xqc) Test 
#IOP(5/87=12) Density=Current Pop=(MK,readradii) iop(6/33=2) iop(6/42=6)

apoCaM-CA-Ng.loop3.water2.frame972 

   0  1 
C         82.08204       27.17409       65.36024
C         82.96104       27.19901       66.57803
O         82.44671       27.08663       67.68021
H         81.35347       28.00810       65.39366
H         82.67813       27.25184       64.42595
H         81.53241       26.20788       65.33132
N         84.31268       27.28440       66.44650
C         85.23152       27.11769       67.56569
C         85.17253       28.27713       68.56373
O         85.48230       29.40198       68.19848
C         86.64701       26.86643       67.01069
C         87.58985       26.32518       68.03401
O         88.70943       25.97964       67.69637
O         87.20408       26.17315       69.31343
H         84.70138       27.34869       65.49224
H         84.94451       26.18387       68.07724
H         87.05750       27.78600       66.54116
H         86.57462       26.07795       66.22974
N         84.76136       28.05503       69.85069
C         84.62331       29.10588       70.87007
C         85.94307       29.73378       71.30904
O         85.91457       30.79455       71.91821
C         83.87587       28.56579       72.11569
C         84.62997       27.44326       72.86628
C         83.77502       26.87731       74.00786
C         84.48645       25.71206       74.70936
N         83.63843       25.12352       75.74565
H         84.47225       27.09725       70.08796
H         83.99262       29.90553       70.42280
H         82.89203       28.17657       71.77545
H         83.68295       29.40193       72.82397
H         85.58883       27.83187       73.27427
H         84.86327       26.60821       72.17477
H         82.81794       26.50193       73.58372
H         83.55135       27.67797       74.74615
H         85.43892       26.06647       75.16224
H         84.72622       24.92997       73.96020
H         82.75086       24.76548       75.32250
H         84.14410       24.32176       76.18740
H         83.41889       25.83474       76.47983
N         87.12497       29.10118       71.09642
C         88.43253       29.61610       71.48973
C         89.29252       29.77393       70.25061
O         89.81045       30.85618       70.01644
C         89.08949       28.72752       72.57897
C         89.25015       27.26501       72.25830
O         88.17069       26.49082       72.04441
O         90.35807       26.75393       72.27521
H         87.08936       28.18722       70.63956
H         88.34226       30.62137       71.95974
H         88.46885       28.78660       73.49818
H         90.08739       29.15808       72.82150
N         89.42643       28.74007       69.37786
C         90.17182       28.79838       68.13586
C         91.18667       27.68267       68.03322
O         91.88795       27.65100       67.03137
H         88.93605       27.86947       69.58477
H         90.69155       29.77390       68.02552
H         89.46041       28.69294       67.28881
N         91.33554       26.73647       69.01287
C         92.36202       25.71285       68.98089
C         91.75464       24.27959       69.03639
O         91.08812       24.02954       70.25885
C         93.34889       25.96853       70.14198
C         93.92091       27.36726       70.07590
N         93.70313       28.25184       71.07828
O         94.57777       27.70700       69.10276
H         90.74928       26.75771       69.85205
H         92.93925       25.78765       68.03223
H         94.18730       25.24105       70.10300
H         92.81760       25.83092       71.10786
H         93.14714       27.99021       71.90546
H         94.08610       29.20762       71.02595
N         92.86579       23.33704       68.80801
C         92.66121       21.91076       69.08807
C         91.48762       21.31123       68.35786
O         91.31970       21.55824       67.17169
H         93.17822       23.44106       67.81385
H         92.58918       21.74052       70.18361
H         93.57403       21.37857       68.74315
N         90.65410       20.45732       69.01551
C         89.45185       19.87786       68.42239
C         88.41275       20.96540       68.20392
O         88.75004       22.12814       68.27331
C         88.89585       18.75817       69.34915
C         89.77142       17.53162       69.40641
C         90.19757       17.01177       70.63851
C         90.11393       16.85362       68.22102
C         90.94460       15.82911       70.68216
C         90.87133       15.68386       68.26658
C         91.28229       15.16145       69.49461
O         91.98855       14.01390       69.52037
H         90.88466       20.21147       69.99122
H         89.67699       19.42562       67.43611
H         87.94302       18.36129       68.95996
H         88.68905       19.16658       70.36224
H         89.93031       17.50411       71.56525
H         89.78791       17.21793       67.25592
H         91.25039       15.42660       71.63907
H         91.12407       15.17568       67.34432
H         92.26967       13.60118       70.34878
N         87.11604       20.66251       67.94343
C         86.04017       21.63327       67.84813
C         85.84829       22.38582       69.21674
O         86.49664       23.64496       69.22685
C         86.17045       22.53820       66.58226
C         84.95261       23.47453       66.36376
C         86.41550       21.68107       65.32539
C         83.60394       22.78059       66.13877
H         86.83631       19.68010       67.83416
H         85.13491       21.00740       67.68433
H         87.06002       23.19353       66.70237
H         85.15491       24.11925       65.48079
H         84.85229       24.13782       67.23740
H         87.35515       21.09839       65.42553
H         85.58608       20.96259       65.15985
H         86.52058       22.32871       64.42982
H         83.30615       22.17189       67.01463
H         82.82091       23.55323       65.98612
H         83.62677       22.13739       65.23645
N         84.39374       22.53754       69.42537
C         83.88031       23.47779       70.44106
C         83.17263       22.75374       71.58332
O         83.52589       22.96825       72.73325
C         82.87346       24.40769       69.74995
O         82.38480       25.35468       70.66318
H         83.94499       21.59517       69.49354
H         84.69739       24.11513       70.84483
H         82.02366       23.83562       69.31827
H         83.38918       24.90769       68.90894
H         82.21582       26.18919       70.15406
N         82.13400       21.90106       71.32871
C         81.35620       21.22611       72.36969
C         82.24194       20.32083       73.23905
O         83.37410       20.08275       72.84089
C         80.24913       20.40298       71.67690
H         81.86433       21.74954       70.34443
H         80.89294       22.01928       72.97939
H         79.55872       19.88891       72.36013
H         79.62645       21.07087       71.04397
H         80.70729       19.62862       71.02457
N         81.84567       19.73656       74.41710
C         80.57867       19.94766       75.11501
C         80.39027       18.90150       76.21603
O         81.19313       18.88397       77.13902
C         80.51659       21.33754       75.77372
H         82.51648       19.08252       74.85172
H         79.75876       19.87182       74.40475
H         81.33319       21.45471       76.51774
H         80.60121       22.16738       75.05500
H         79.54274       21.45792       76.29726
N         79.34900       18.01079       76.23967
C         78.34107       17.89091       75.18780
C         78.91136       17.28739       73.90583
O         78.20812       17.28404       72.90477
C         77.10874       17.08790       75.66540
C         77.37553       15.60212       75.96232
C         76.12250       14.93683       76.45778
O         76.09341       14.38274       77.68493
O         75.12540       14.89559       75.75412
H         79.26832       17.40861       77.07263
H         77.94449       18.90800       74.98131
H         76.32194       17.15364       74.88055
H         76.71217       17.57882       76.58171
H         78.16133       15.49722       76.73746
H         77.71851       15.08153       75.04271
N         80.15622       16.72739       73.86089
C         80.69079       16.13389       72.65430
H         81.70052       15.71435       72.85390
H         80.03042       15.30925       72.31002
H         80.77593       16.90261       71.85793
H         80.74589       16.69105       74.70387
Ca        88.75169       23.97595       69.94645
O         88.44091       21.56051       71.69054
H         89.02905       20.96243       72.21579
H         87.52453       21.23170       71.87062
O         86.80956       23.91572       72.63370
H         87.12520       24.25431       73.50877
H         86.19906       23.17121       72.86287

Ca 1.0



