%chk=apoCaM-CA-Ng.loop1.water3.frame1237.chk
%nprocshared=20
%mem=10GB
%nosave
#b3lyp/svp scf=(tight,noincore,xqc) Test 
#IOP(5/87=12) Density=Current Pop=(MK,readradii) iop(6/33=2) iop(6/42=6)

apoCaM-CA-Ng.loop1.water3.frame1237 

   0  1 
C         89.89576       37.41412       25.57904
C         88.49331       37.68612       26.03841
O         87.59828       36.94974       25.64772
H         90.61818       38.12412       26.03328
H         90.18283       36.38269       25.87221
H         89.95403       37.50746       24.47404
N         88.22295       38.74158       26.86044
C         86.88316       39.04199       27.36181
C         86.16066       40.03564       26.46328
O         85.66346       41.04537       26.94694
C         86.95086       39.50351       28.84273
C         87.71076       40.79366       29.08777
O         87.81599       41.26540       30.34383
O         88.22094       41.42380       28.17356
H         89.00770       39.34561       27.14294
H         86.27276       38.11169       27.34116
H         87.42905       38.70164       29.44368
H         85.91476       39.64369       29.22088
N         86.04947       39.80388       25.12580
C         85.33405       40.70896       24.23863
C         83.85300       40.72765       24.56520
O         83.35276       41.80762       24.84215
C         85.58965       40.42625       22.74171
C         87.09238       40.53116       22.43296
C         87.37757       40.66063       20.93643
C         88.89186       40.77357       20.70590
N         89.19342       41.09615       19.31362
H         86.50430       38.97423       24.72423
H         85.73459       41.73701       24.39960
H         85.05096       41.21804       22.17435
H         85.20280       39.44471       22.39895
H         87.62375       39.65005       22.85282
H         87.49590       41.44921       22.91432
H         86.88165       41.58674       20.57018
H         86.97196       39.79083       20.37508
H         89.37759       39.81228       20.98742
H         89.31267       41.57750       21.35108
H         88.79965       42.03695       19.07905
H         90.23133       41.12965       19.19092
H         88.79234       40.37309       18.67461
N         83.05715       39.61910       24.60440
C         83.46165       38.23323       24.37951
C         83.35044       37.45379       25.68903
O         83.12446       38.05891       26.72853
C         82.66748       37.64408       23.19382
C         81.19347       37.79295       23.35926
O         80.58722       37.23626       24.41345
O         80.54309       38.43644       22.55106
H         82.07000       39.76967       24.86982
H         84.51962       38.14121       24.08603
H         82.91318       36.57195       23.04616
H         82.97114       38.17805       22.26719
N         83.60093       36.11829       25.72982
C         83.77234       35.37327       26.96414
C         82.56937       35.33329       27.94439
O         81.45910       34.73733       27.32956
H         83.79321       35.61303       24.85240
H         84.64184       35.81507       27.50058
H         84.05174       34.32712       26.70607
N         83.02347       34.47236       29.05760
C         82.09745       34.14529       30.16048
C         82.72498       33.02323       30.99849
O         83.90554       33.11715       31.30572
C         81.85595       35.35041       31.09949
C         80.91302       36.39214       30.56429
O         80.32894       36.23911       29.50478
O         80.64559       37.47859       31.31184
H         83.90817       34.86334       29.46224
H         81.12425       33.80558       29.76071
H         82.83074       35.81064       31.37150
H         81.37911       34.98605       32.03584
N         82.00708       31.97283       31.50315
C         80.57498       31.81533       31.33252
C         80.20157       31.37881       29.93817
O         81.06287       30.98080       29.16798
H         82.48820       31.30342       32.12453
H         80.08193       32.77617       31.59740
H         80.18455       31.04661       32.03355
N         78.90187       31.47182       29.54558
C         78.41142       31.11409       28.21364
C         79.22325       31.82222       27.14404
O         79.42100       33.01770       27.26426
C         76.91354       31.49327       28.07212
C         76.01711       30.67157       29.00445
O         76.48282       31.26959       26.75176
H         78.23978       31.87309       30.22704
H         78.50629       30.01719       28.06014
H         76.78116       32.56744       28.34185
H         76.51041       32.14375       26.27966
H         76.10536       29.59092       28.76319
H         76.27869       30.82021       30.07135
H         74.95859       30.97929       28.86853
N         79.69981       31.12168       26.06436
C         80.53041       31.64458       24.97250
C         79.86667       32.82657       24.29060
O         79.72155       33.86405       24.90889
C         81.96408       31.99390       25.45920
C         82.63796       30.76131       26.10839
C         82.81841       32.54493       24.29507
C         83.93431       31.10807       26.84390
H         79.44632       30.12484       25.99652
H         80.64076       30.82750       24.22376
H         81.87913       32.76844       26.23035
H         82.82707       29.97983       25.34103
H         81.96052       30.32755       26.87073
H         82.35850       33.45616       23.85811
H         83.82867       32.84449       24.63294
H         82.91811       31.78237       23.49327
H         84.70824       31.50184       26.15690
H         83.72998       31.86026       27.63683
H         84.33923       30.19421       27.32581
N         79.44940       32.75434       23.00200
C         78.76373       33.85567       22.33803
C         77.31371       33.50607       22.06694
O         76.62773       34.33534       21.49304
C         79.52036       34.30537       21.06470
C         79.68727       33.20402       20.01729
O         80.79302       34.78244       21.42291
H         79.57611       31.86783       22.48994
H         78.71832       34.75396       22.99057
H         78.93138       35.12337       20.58016
H         80.74812       35.77438       21.42057
H         80.31619       32.37787       20.40747
H         78.69974       32.80388       19.70769
H         80.19538       33.62399       19.12322
N         76.76158       32.31812       22.47616
C         75.36086       32.00436       22.24056
C         74.48287       32.98242       23.01178
O         74.36327       32.88373       24.22466
C         75.05841       30.52926       22.60671
C         73.61059       30.13339       22.30881
O         75.90647       29.69138       21.85856
H         77.33987       31.61514       22.95296
H         75.18263       32.11168       21.14657
H         75.23621       30.39132       23.70158
H         76.41982       29.13023       22.49682
H         73.39017       30.25937       21.22735
H         73.45548       29.06703       22.58033
H         72.90090       30.74854       22.89982
N         73.88649       33.99988       22.33573
C         72.98702       35.00101       22.89013
C         73.58933       35.76731       24.07721
O         72.92272       35.92844       25.08887
C         71.60658       34.33812       23.13943
C         70.42691       35.32131       23.03932
C         69.08365       34.56723       22.99956
C         67.92767       35.49987       22.60572
N         66.67088       34.75963       22.48139
H         74.07565       34.07954       21.32467
H         72.84391       35.73629       22.06682
H         71.59749       33.74613       24.08114
H         71.45136       33.62146       22.30127
H         70.52964       35.85942       22.07124
H         70.44218       36.06719       23.86204
H         68.88545       34.08652       23.98233
H         69.13820       33.77141       22.22371
H         68.15972       35.96701       21.62152
H         67.81469       36.30842       23.35983
H         66.76570       34.00373       21.76362
H         66.40496       34.34056       23.40130
H         65.91622       35.41489       22.17324
N         74.87166       36.24500       24.01944
C         75.51702       37.01003       25.09585
C         77.07156       37.09494       24.94101
O         77.69397       35.85169       25.14717
C         74.91042       38.43296       25.26937
C         74.17771       38.63394       26.60177
C         73.74375       40.06634       26.75743
O         72.43960       40.36846       26.89726
O         74.57395       40.96269       26.77100
H         75.42398       35.99577       23.19159
H         75.38810       36.44834       26.04540
H         74.23487       38.68165       24.42088
H         75.73634       39.17952       25.26554
H         74.86060       38.38766       27.44367
H         73.29415       37.96567       26.65162
N         77.67665       37.81497       23.78897
C         76.84422       38.29428       22.68040
H         76.03141       38.95936       23.01266
H         77.48032       38.91012       22.00938
H         76.46438       37.46129       22.05967
H         78.40821       37.20958       23.35709
Ca        79.63022       35.95896       26.50244
O         80.68015       38.93010       28.18876
H         81.25391       38.90416       28.99487
H         80.82654       38.05406       27.75295
O         76.91561       35.23813       28.10253
H         76.17116       34.78754       27.63033
H         76.47235       35.92349       28.66219
O         77.78130       38.26814       27.73791
H         77.75627       38.15573       28.72109
H         77.68669       39.24295       27.59451

Ca 1.0



