%chk=apoCaM-CA-Ng.loop1.water3.frame1465.chk
%nprocshared=20
%mem=10GB
%nosave
#b3lyp/svp scf=(tight,noincore,xqc) Test 
#IOP(5/87=12) Density=Current Pop=(MK,readradii) iop(6/33=2) iop(6/42=6)

apoCaM-CA-Ng.loop1.water3.frame1465 

   0  1 
C         54.53196       52.05327       94.96907
C         53.80672       53.17239       94.28289
O         54.18547       53.52023       93.17330
H         55.59667       52.33889       95.10923
H         54.09469       51.83631       95.96605
H         54.47946       51.13673       94.34666
N         52.77315       53.81166       94.90282
C         52.08710       54.96166       94.32529
C         52.46010       56.19320       95.11742
O         51.60794       56.89723       95.64201
C         50.56795       54.71484       94.18819
C         49.80836       54.47894       95.47174
O         50.41740       54.49893       96.67320
O         48.60620       54.27628       95.41985
H         52.50976       53.50879       95.85128
H         52.45692       55.15265       93.29396
H         50.42208       53.83220       93.52908
H         50.11786       55.59659       93.68013
N         53.77812       56.51488       95.20227
C         54.28914       57.70341       95.86393
C         53.66687       58.95759       95.26495
O         53.14203       59.74178       96.04283
C         55.83923       57.74650       95.83949
C         56.43071       56.53743       96.59556
C         57.95913       56.57939       96.69566
C         58.46729       55.33575       97.44574
N         59.92126       55.35543       97.59262
H         54.44939       55.88913       94.73351
H         54.00435       57.66578       96.94050
H         56.17188       58.67591       96.35257
H         56.22789       57.76968       94.79970
H         56.14508       55.59352       96.08700
H         56.01385       56.51967       97.62654
H         58.26712       57.49630       97.24407
H         58.40352       56.60277       95.67664
H         58.16873       54.41982       96.88731
H         58.00219       55.29335       98.45620
H         60.22278       54.48960       98.09633
H         60.37927       55.37742       96.65299
H         60.21329       56.18940       98.15188
N         53.59847       59.23714       93.92756
C         54.08762       58.40670       92.82740
C         52.92040       57.88348       91.98572
O         51.77243       58.18888       92.27347
C         55.14280       59.18634       92.02218
C         54.67088       60.53982       91.59338
O         53.71614       60.65885       90.84621
O         55.29493       61.63490       92.06751
H         53.11055       60.10836       93.66406
H         54.60697       57.50881       93.19156
H         55.47751       58.60384       91.14153
H         56.02776       59.33514       92.67832
N         53.15628       56.99438       90.98075
C         52.11856       56.29484       90.23296
C         51.27710       57.17969       89.29242
O         52.14040       57.93464       88.50256
H         54.13136       56.71955       90.79092
H         51.45298       55.74570       90.93365
H         52.62515       55.53451       89.59802
N         50.47573       56.27194       88.44517
C         49.94856       56.78105       87.15556
C         49.78975       55.60541       86.18461
O         49.75704       54.47171       86.64275
C         48.56883       57.46000       87.35307
C         48.64118       58.71643       88.16150
O         47.96285       58.81356       89.31989
O         49.26878       59.67527       87.74462
H         49.74179       55.77961       89.00696
H         50.67918       57.47935       86.70442
H         47.87865       56.73942       87.84300
H         48.10521       57.73423       86.38920
N         49.66335       55.75800       84.82797
C         49.80293       57.01912       84.11732
C         51.23002       57.51496       84.12566
O         52.13440       56.77109       84.47713
H         49.48173       54.91785       84.25658
H         49.12262       57.77703       84.53952
H         49.51297       56.89352       83.05151
N         51.49072       58.79984       83.76368
C         52.82810       59.39140       83.74828
C         53.51326       59.21528       85.09633
O         52.90496       59.49117       86.11881
C         52.75467       60.90155       83.38331
C         52.22171       61.14721       81.96206
O         54.01758       61.50866       83.51211
H         50.68125       59.39241       83.52550
H         53.44606       58.88854       82.97205
H         52.06791       61.40285       84.10039
H         54.64201       61.04741       82.89342
H         52.17982       62.23937       81.76410
H         52.89408       60.67834       81.21219
H         51.20109       60.73822       81.82399
N         54.81369       58.79282       85.14554
C         55.59485       58.60472       86.36567
C         55.57415       59.87196       87.20241
O         54.86014       59.92997       88.19638
C         55.18103       57.34032       87.17715
C         55.13675       56.08270       86.27691
C         56.16130       57.12768       88.35730
C         54.61496       54.83733       87.00019
H         55.30721       58.63225       84.25481
H         56.64949       58.40680       86.06637
H         54.17347       57.50081       87.57312
H         56.14501       55.87391       85.85928
H         54.44656       56.27054       85.43099
H         56.21979       58.01863       89.01040
H         55.84456       56.29138       89.00950
H         57.18490       56.92028       87.97811
H         54.54997       53.99347       86.28297
H         55.29263       54.52377       87.81933
H         53.60154       55.02893       87.41209
N         56.40149       60.90434       86.89404
C         56.53320       62.08271       87.74094
C         56.49019       63.39444       86.96745
O         56.59646       64.42392       87.61621
C         57.81379       61.94825       88.60432
C         59.09163       61.78644       87.77851
O         57.69445       60.82825       89.44404
H         57.04398       60.78763       86.09559
H         55.68820       62.14171       88.46427
H         57.93600       62.86170       89.23290
H         57.10374       61.09413       90.19550
H         59.23946       62.65518       87.10564
H         59.96275       61.70818       88.46288
H         59.05722       60.85412       87.17608
N         56.33265       63.46227       85.60659
C         56.29014       64.74499       84.90338
C         55.05495       65.50867       85.36271
O         53.96264       65.12913       84.96987
C         56.27974       64.52180       83.36146
C         56.30699       65.82943       82.55833
O         57.35597       63.70424       82.97144
H         56.25271       62.59660       85.05754
H         57.21676       65.30238       85.16735
H         55.34599       63.98181       83.08951
H         58.19688       64.19187       83.17148
H         57.23628       66.39805       82.77374
H         56.27864       65.59624       81.47173
H         55.42938       66.46365       82.80047
N         55.15840       66.53641       86.26401
C         54.02753       67.23656       86.88397
C         53.11662       66.28913       87.65561
O         52.61125       65.33201       87.08968
C         53.18560       68.03874       85.88194
C         53.97663       69.15855       85.19426
C         53.03168       69.97114       84.29479
C         53.73198       71.08451       83.50203
N         54.23288       72.16002       84.35973
H         56.10118       66.81024       86.58034
H         54.43687       67.97918       87.60685
H         52.35933       68.51772       86.45620
H         52.73333       67.36624       85.12379
H         54.79294       68.71482       84.58410
H         54.42355       69.81872       85.96871
H         52.21297       70.41535       84.90444
H         52.57578       69.27261       83.56050
H         52.98787       71.51738       82.79714
H         54.56295       70.65315       82.90217
H         54.65878       72.89939       83.75503
H         53.44373       72.58596       84.89861
H         54.96559       71.80896       85.01519
N         52.78783       66.54653       88.94986
C         51.89618       65.67448       89.70651
C         52.55503       64.33008       89.96518
O         51.96459       63.33461       89.57167
C         51.38216       66.34382       90.99786
C         50.48724       67.54749       90.65050
C         49.94903       68.20861       91.88319
O         50.18935       69.38519       92.10132
O         49.17923       67.51499       92.74335
H         53.14497       67.40825       89.38987
H         50.97783       65.48618       89.10153
H         52.21324       66.66203       91.65716
H         50.76285       65.60638       91.55618
H         49.62609       67.20359       90.03540
H         51.06118       68.29000       90.05576
N         53.76030       64.15960       90.58224
C         54.63104       65.19310       91.10227
H         55.61010       65.13775       90.58165
H         54.24069       66.21207       90.97494
H         54.79529       65.01841       92.18617
H         54.10653       63.19838       90.67339
Ca        51.75545       60.13959       88.91588
O         53.44878       62.13825       86.80891
H         53.31819       62.47186       85.88844
H         53.15771       62.88384       87.38479
O         49.92482       60.42076       91.28115
H         49.89638       59.49227       90.93883
H         50.86813       60.55609       91.54987
O         50.36815       62.45557       87.11590
H         49.48646       62.76972       87.43833
H         50.59956       63.07363       86.37797

Ca 1.0



