%chk=apoCaM-CA-Ng.loop2.water3.frame176.chk
%nprocshared=20
%mem=10GB
%nosave
#b3lyp/svp scf=(tight,noincore,xqc) Test 
#IOP(5/87=12) Density=Current Pop=(MK,readradii) iop(6/33=2) iop(6/42=6)

apoCaM-CA-Ng.loop2.water3.frame176 

   -2  1 
C         86.98354       52.19878       25.24266
C         88.47519       52.16779       25.09470
O         88.98575       51.35031       24.34216
H         86.70677       52.01954       26.30248
H         86.60385       53.19473       24.93016
H         86.50677       51.42124       24.60852
N         89.23985       53.05359       25.79029
C         90.69040       53.13169       25.68249
C         91.36903       52.84011       27.01948
O         92.56388       53.05363       27.10462
C         91.05736       54.52583       25.13008
C         92.52163       54.65091       24.79811
O         93.27439       55.59016       25.40131
O         93.03312       53.90290       23.97914
H         88.76774       53.72598       26.41588
H         91.07268       52.38243       24.95411
H         90.76177       55.30881       25.86170
H         90.49290       54.69701       24.18775
N         90.68662       52.31547       28.08403
C         91.26406       51.92063       29.37039
C         92.24466       50.75632       29.23822
O         91.87138       49.65139       29.60670
C         91.84766       53.11107       30.14163
H         89.67633       52.14039       27.98595
H         90.41509       51.54230       29.98701
H         92.70139       53.57500       29.60873
H         91.06380       53.88517       30.28395
H         92.19608       52.77907       31.14334
N         93.51649       50.92281       28.76581
C         94.48626       49.83991       28.63274
C         94.97440       49.65377       27.19566
O         95.83608       48.80840       26.99478
C         95.66012       50.07273       29.61628
C         96.50299       51.30312       29.38000
O         96.29188       52.05809       28.44440
O         97.52104       51.56710       30.22084
H         93.84418       51.86478       28.53585
H         94.02733       48.87230       28.92741
H         96.33515       49.19010       29.58587
H         95.24037       50.13750       30.64352
N         94.46667       50.36444       26.13947
C         94.93045       50.18099       24.76762
C         94.73426       48.76056       24.26341
O         95.48217       48.33997       23.39263
H         93.72839       51.05993       26.29374
H         96.01586       50.42300       24.74398
H         94.41791       50.88782       24.07991
N         93.80661       47.93866       24.82913
C         93.74946       46.49914       24.58668
C         93.39033       46.12339       23.15656
O         92.31349       46.45837       22.68407
C         92.75438       45.83695       25.55917
C         93.13018       46.11971       26.99408
N         94.31338       45.70236       27.50353
O         92.35904       46.74902       27.69917
H         93.17943       48.33680       25.54388
H         94.75417       46.08520       24.81982
H         92.74394       44.73665       25.40329
H         91.73128       46.22803       25.35744
H         94.98176       45.17057       26.92789
H         94.56488       45.91382       28.48049
N         94.26298       45.36732       22.43168
C         94.01564       44.84715       21.09693
C         92.95827       43.76270       21.08601
O         93.04882       42.84386       21.88867
H         95.17344       45.12839       22.85361
H         94.95072       44.35059       20.75749
H         93.79657       45.66850       20.38176
N         91.96924       43.76021       20.14449
C         91.02117       42.65154       19.99202
C         89.77911       42.82473       20.85994
O         88.90354       41.97319       20.80259
C         90.62982       42.44760       18.49743
C         89.74929       43.56123       17.90174
O         91.77766       42.23979       17.71095
H         91.96852       44.51880       19.44726
H         91.52472       41.70471       20.29140
H         90.02195       41.51830       18.42908
H         92.20618       43.12034       17.54930
H         88.78666       43.61812       18.44733
H         90.24989       44.54989       17.93760
H         89.51323       43.32343       16.84302
N         89.62470       43.91208       21.66699
C         88.41518       44.20121       22.43366
C         88.72321       44.20255       23.92104
O         89.86677       43.97974       24.29553
C         87.81612       45.57042       21.96119
C         88.80619       46.75559       22.16495
C         87.36656       45.45996       20.49552
C         88.21428       48.12543       21.83480
H         90.39245       44.58965       21.73633
H         87.64456       43.41499       22.27579
H         86.90254       45.77528       22.55678
H         89.70957       46.62985       21.53360
H         89.12549       46.78414       23.22763
H         86.67158       44.60208       20.37114
H         86.82112       46.36772       20.17056
H         88.24276       45.32058       19.83309
H         87.94886       48.20222       20.76102
H         87.31710       48.31995       22.45805
H         88.97255       48.90971       22.04492
N         87.74343       44.49833       24.82803
C         88.01897       44.68535       26.24642
C         87.03110       43.91871       27.14767
O         87.12659       44.05512       28.35931
C         88.03671       46.21304       26.48039
C         88.83734       46.67586       27.66917
O         88.98128       47.87442       27.85237
O         89.46316       45.81037       28.48847
H         86.79945       44.73267       24.48868
H         89.04322       44.31893       26.47438
H         87.00101       46.61623       26.48999
H         88.56845       46.67684       25.61964
N         86.09605       43.05330       26.63543
C         85.19449       42.23479       27.45763
C         84.16476       43.10346       28.16337
O         83.38741       43.73459       27.46632
C         84.50276       41.17527       26.56528
C         83.61129       40.21619       27.32291
C         84.06942       38.92228       27.62401
C         82.30806       40.58550       27.70697
C         83.24713       38.02065       28.30550
C         81.48462       39.67594       28.37871
C         81.95494       38.39567       28.68024
H         86.06393       42.90946       25.61629
H         85.81999       41.67377       28.18165
H         85.32125       40.59568       26.08461
H         83.92099       41.64181       25.73927
H         85.06682       38.61317       27.33814
H         81.91776       41.56653       27.47188
H         83.61155       37.02889       28.53906
H         80.47922       39.96143       28.66130
H         81.31724       37.69258       29.20040
N         84.06406       43.18125       29.52847
C         83.15579       44.07209       30.24255
C         83.23252       45.51847       29.77070
O         82.20312       46.10348       29.46644
C         83.63207       43.96518       31.70238
C         84.07388       42.52475       31.77331
C         84.82811       42.36704       30.45424
H         82.11814       43.68030       30.14174
H         84.55357       44.57089       31.85882
H         82.88125       44.27654       32.45966
H         84.65517       42.23863       32.67581
H         83.15154       41.89957       31.73267
H         85.86792       42.75546       30.50268
H         84.81796       41.28617       30.19233
N         84.43750       46.15189       29.68864
C         84.61004       47.55667       29.30283
C         84.20320       47.86113       27.86110
O         84.19236       49.03050       27.50066
C         86.08672       47.95449       29.49025
C         86.50718       47.94207       30.96700
C         87.98434       48.14277       31.11880
O         88.52798       49.14486       30.68165
O         88.71433       47.21052       31.75908
H         85.27343       45.60416       29.94319
H         83.98055       48.18729       29.96849
H         86.28172       48.97274       29.08673
H         86.68894       47.22665       28.91832
H         86.24944       46.97347       31.44275
H         85.96711       48.74945       31.50447
N         83.86787       46.88687       26.97640
C         83.45180       47.16445       25.61976
H         82.53407       47.79014       25.62606
H         84.26214       47.68753       25.07095
H         83.22297       46.21138       25.09465
H         83.91775       45.91306       27.26259
Ca        90.84903       46.66194       30.05990
O         90.96138       44.31001       31.78664
H         91.88266       44.39773       32.13858
H         91.07938       43.95761       30.86850
O         93.59769       47.35753       31.13582
H         93.75905       48.27195       31.47934
H         94.49801       46.95143       31.07546
O         91.11161       48.70922       32.76561
H         91.74276       48.01605       33.08343
H         90.43747       48.77699       33.48751

Ca 1.0



