%chk=apoCaM-CA-Ng.loop4.water4.frame729.chk
%nprocshared=20
%mem=10GB
%nosave
#b3lyp/svp scf=(tight,noincore,xqc) Test 
#IOP(5/87=12) Density=Current Pop=(MK,readradii) iop(6/33=2) iop(6/42=6)

apoCaM-CA-Ng.loop4.water4.frame729 

   -3  1 
C        102.24599       -1.61112      -15.48505
C        103.21441       -2.48837      -16.21614
O        102.79108       -3.41348      -16.89131
H        101.20081       -1.94919      -15.65081
H        102.46941       -1.64374      -14.39980
H        102.34747       -0.56600      -15.84554
N        104.55017       -2.23242      -16.13488
C        105.58771       -3.00346      -16.81249
C        105.34291       -2.98843      -18.31106
O        105.31101       -4.04439      -18.93208
C        105.67810       -4.44911      -16.25658
C        105.91395       -4.49012      -14.77284
O        107.02268       -5.07470      -14.28142
O        105.08712       -4.02724      -14.00394
H        104.85688       -1.42263      -15.57384
H        106.56257       -2.50219      -16.62150
H        106.51446       -4.97666      -16.76560
H        104.74502       -5.00926      -16.47301
N        105.08233       -1.81075      -18.95034
C        104.66663       -1.78732      -20.34899
C        105.87145       -1.90957      -21.27455
O        106.95137       -1.50096      -20.87032
C        103.78750       -0.55160      -20.70334
C        104.58208        0.77915      -20.63815
C        102.53410       -0.53157      -19.80493
C        103.77264        1.99112      -21.10030
H        105.04430       -0.94833      -18.38883
H        104.00432       -2.66887      -20.46913
H        103.43967       -0.68283      -21.75211
H        105.45868        0.70761      -21.31651
H        104.95444        0.96899      -19.61033
H        102.80193       -0.36060      -18.74142
H        101.82292        0.25621      -20.12234
H        101.99680       -1.50034      -19.87808
H        104.42245        2.89121      -21.09150
H        103.39906        1.83330      -22.13453
H        102.91776        2.18734      -20.42269
N        105.81688       -2.47644      -22.51617
C        104.64295       -3.11598      -23.09470
C        104.87233       -4.60875      -23.03818
O        104.12454       -5.29134      -22.35084
C        104.27978       -2.56277      -24.49590
C        105.32378       -2.72767      -25.56835
O        105.07703       -3.39082      -26.56328
O        106.51832       -2.11571      -25.46313
H        106.70372       -2.54483      -23.03733
H        103.74210       -2.91304      -22.49531
H        104.05292       -1.47850      -24.40586
H        103.34684       -3.07206      -24.82693
N        105.91799       -5.18114      -23.69572
C        106.24837       -6.58713      -23.60637
C        105.89383       -7.24229      -24.90049
O        106.76752       -7.72188      -25.60817
H        106.52261       -4.60394      -24.29513
H        105.68021       -7.10387      -22.80198
H        107.32939       -6.68549      -23.36856
N        104.58078       -7.32396      -25.24057
C        104.08711       -7.97463      -26.44027
C        103.18896       -7.06231      -27.27320
O        102.79048       -7.48828      -28.34756
C        103.39233       -9.29654      -26.02709
C        102.41906       -9.17325      -24.87564
O        101.41534       -8.49116      -24.96190
O        102.66736       -9.82549      -23.72365
H        103.88576       -6.95790      -24.57114
H        104.93197       -8.25223      -27.10862
H        104.19240       -9.98694      -25.68252
H        102.90331       -9.77051      -26.90228
N        102.82444       -5.80496      -26.87454
C        101.95071       -4.93917      -27.65973
C        100.51780       -5.44070      -27.79115
O         99.72411       -4.73767      -28.39831
H        103.18281       -5.41690      -25.99194
H        102.39060       -4.78732      -28.66948
H        101.89866       -3.94670      -27.16015
N        100.10690       -6.62411      -27.24303
C         98.76099       -7.18174      -27.30178
C         97.74609       -6.39080      -26.48461
O         96.58860       -6.78703      -26.48697
C         98.29180       -7.39571      -28.76241
C         99.24546       -8.27001      -29.59998
C         99.41879       -9.65744      -29.02879
N        100.64741      -10.12704      -28.70991
O         98.43968      -10.36958      -28.86404
H        100.78425       -7.19995      -26.75103
H         98.78843       -8.18670      -26.82321
H         98.16815       -6.42001      -29.27498
H         97.29326       -7.88561      -28.75224
H        100.22934       -7.76222      -29.69390
H         98.82091       -8.36843      -30.62190
H        101.48711       -9.55340      -28.86041
H        100.76424      -11.07492      -28.32236
N         98.09240       -5.30465      -25.72718
C         97.12634       -4.54579      -24.93556
C         97.44056       -4.57344      -23.44564
O         96.68734       -3.95120      -22.70767
C         97.03504       -3.07583      -25.43956
C         98.33953       -2.28374      -25.23855
C         96.60450       -3.02521      -26.91112
H         99.07125       -4.99322      -25.69741
H         96.10941       -4.98387      -25.04080
H         96.24192       -2.56287      -24.84992
H         98.62630       -2.26768      -24.16622
H         99.17460       -2.71455      -25.82764
H         98.19384       -1.23046      -25.55930
H         97.36642       -3.49881      -27.56489
H         95.63747       -3.55518      -27.04534
H         96.46864       -1.97077      -27.23271
N         98.50422       -5.25371      -22.91525
C         98.81808       -5.20872      -21.48850
C         98.60621       -6.55589      -20.82944
O         98.40587       -7.55458      -21.50850
C        100.25407       -4.69135      -21.27739
C        100.41905       -3.29701      -21.82878
N         99.72181       -2.26046      -21.30706
O        101.19232       -3.10039      -22.75319
H         99.11767       -5.81599      -23.52344
H         98.11767       -4.52185      -20.96764
H        100.96274       -5.38356      -21.78556
H        100.51150       -4.66957      -20.19685
H         99.07401       -2.40266      -20.51875
H         99.83826       -1.30848      -21.68462
N         98.52546       -6.61285      -19.46993
C         98.14283       -7.81997      -18.73768
C         97.55759       -7.46960      -17.36726
O         97.46523       -6.29354      -17.03818
C         99.34374       -8.79347      -18.60915
C        100.33553       -8.37134      -17.54218
C        101.07085       -7.18040      -17.65050
C        100.50751       -9.17626      -16.39933
C        101.94565       -6.79854      -16.62862
C        101.38071       -8.78974      -15.38034
C        102.09933       -7.59797      -15.48811
O        102.92926       -7.23039      -14.49168
H         98.62427       -5.71988      -18.96350
H         97.33305       -8.32814      -19.30718
H         99.84903       -8.93357      -19.58848
H         98.93163       -9.78666      -18.32949
H        100.96732       -6.54307      -18.51698
H         99.95339      -10.09961      -16.28576
H        102.50015       -5.87964      -16.72125
H        101.49156       -9.41453      -14.50267
H        103.43171       -6.40399      -14.51882
N         97.18508       -8.44619      -16.49006
C         96.75077       -8.14472      -15.13120
C         97.83717       -8.60785      -14.18134
O         98.06074       -9.80855      -14.10585
C         95.41786       -8.83646      -14.79315
C         94.26352       -8.36758      -15.68421
C         92.98890       -9.05887      -15.28967
O         92.49372       -8.90657      -14.04587
O         92.39528       -9.76079      -16.09261
H         97.29425       -9.43556      -16.75945
H         96.59454       -7.06073      -15.01453
H         95.16630       -8.60931      -13.73283
H         95.53330       -9.93871      -14.89842
H         94.49745       -8.59348      -16.74764
H         94.12415       -7.27063      -15.57550
N         98.61833       -7.75458      -13.45477
C         98.54837       -6.29442      -13.48391
C         97.27424       -5.78771      -12.83546
O         97.01077       -6.12138      -11.68811
C         99.78205       -5.70884      -12.76728
C         99.82400       -4.17078      -12.79981
C        101.11338       -3.63286      -12.24187
O        101.28865       -2.42681      -12.18452
O        102.09195       -4.46676      -11.83519
H         99.36340       -8.18681      -12.88455
H         98.61966       -5.94930      -14.53954
H        100.68089       -6.09624      -13.29500
H         99.81685       -6.05483      -11.71015
H         98.97559       -3.76339      -12.20836
H         99.73137       -3.81557      -13.84919
N         96.45571       -4.93257      -13.50911
C         95.25449       -4.38638      -12.91787
H         94.54744       -5.20467      -12.66767
H         95.51002       -3.81802      -11.99779
H         94.76263       -3.69332      -13.63364
H         96.70240       -4.63859      -14.46655
Ca       104.10391       -3.68352      -11.18383
O        104.73792       -6.96354      -11.86912
H        105.08470       -7.45739      -12.65426
H        104.19800       -7.63077      -11.37533
O        103.30459       -1.68439       -9.09722
H        103.69943       -1.04455       -9.74177
H        102.52275       -2.06367       -9.57225
O        106.97007       -2.68540      -11.83171
H        107.41394       -2.92022      -10.97840
H        106.69695       -1.74038      -11.71860
O        105.88494       -5.11975       -9.13963
H        105.13556       -5.64065       -8.75541
H        105.72848       -4.19308       -8.82716

Ca 1.0



