%chk=apoCaM-CA-Ng.loop1.water3.frame1323.chk
%nprocshared=20
%mem=10GB
%nosave
#b3lyp/svp scf=(tight,noincore,xqc) Test 
#IOP(5/87=12) Density=Current Pop=(MK,readradii) iop(6/33=2) iop(6/42=6)

apoCaM-CA-Ng.loop1.water3.frame1323 

   0  1 
C         38.01622       40.64092      102.62998
C         39.09289       40.19837      103.57098
O         39.96866       40.99547      103.87781
H         37.03419       40.58539      103.14182
H         38.19165       41.68877      102.30140
H         38.00871       39.98584      101.73394
N         39.10884       38.91764      104.04700
C         40.15028       38.42521      104.94371
C         41.09223       37.49584      104.20788
O         41.40928       36.41254      104.67939
C         39.55301       37.83893      106.24235
C         38.68054       36.61840      106.06513
O         38.48260       36.12427      104.96611
O         38.11738       36.05398      107.14947
H         38.38031       38.26724      103.71968
H         40.79284       39.26896      105.25078
H         38.95058       38.63092      106.73655
H         40.38673       37.56826      106.92663
N         41.62117       37.91979      103.03060
C         42.66319       37.21374      102.30323
C         43.94398       37.19257      103.13344
O         44.45418       36.09956      103.33724
C         42.86862       37.82104      100.89301
C         41.57216       37.68290      100.06661
C         41.68436       38.29942       98.67078
C         40.34594       38.15591       97.92681
N         40.39717       38.79169       96.61224
H         41.28263       38.81468      102.64985
H         42.33824       36.16277      102.12347
H         43.68077       37.26825      100.37103
H         43.16515       38.88718      100.95087
H         40.73702       38.19486      100.58855
H         41.31314       36.60489       99.97177
H         42.49091       37.79446       98.09581
H         41.93278       39.37847       98.77062
H         39.53552       38.63210       98.52393
H         40.10004       37.07680       97.80671
H         39.47153       38.67095       96.14046
H         40.58945       39.81436       96.71817
H         41.13969       38.34811       96.02512
N         44.51603       38.29193      103.72389
C         44.02297       39.67118      103.66923
C         43.46529       40.09105      105.02997
O         43.50640       39.31478      105.97458
C         45.13141       40.61152      103.15700
C         46.26953       40.65290      104.12108
O         46.06838       41.12053      105.36507
O         47.35555       40.19567      103.80889
H         45.34676       38.12187      104.31311
H         43.19896       39.76743      102.95481
H         44.74838       41.64362      103.01509
H         45.47997       40.23835      102.16819
N         42.85739       41.30228      105.16750
C         42.13274       41.71178      106.36123
C         42.97044       42.07487      107.56777
O         44.19185       42.03891      107.52948
H         42.79745       41.91757      104.34304
H         41.40189       40.92657      106.64155
H         41.55716       42.62912      106.10950
N         42.30655       42.49884      108.68271
C         42.92335       43.10365      109.87018
C         41.96579       44.14823      110.47510
O         40.80197       44.16535      110.09478
C         43.22737       42.01700      110.92551
C         44.23859       41.01324      110.45958
O         45.37349       41.36735      110.18241
O         43.90765       39.71024      110.38316
H         41.27781       42.49800      108.60883
H         43.84385       43.63777      109.55572
H         42.28045       41.49368      111.18562
H         43.62460       42.46514      111.85379
N         42.31947       45.08147      111.40747
C         43.63855       45.34130      111.95649
C         44.61437       45.80959      110.90661
O         44.26246       46.64204      110.08319
H         41.57128       45.70882      111.74450
H         44.02591       44.48388      112.53915
H         43.53548       46.18109      112.67800
N         45.90203       45.37293      110.94161
C         46.92566       45.82150      110.00467
C         46.65822       45.26013      108.61858
O         46.45066       44.06199      108.49913
C         48.33275       45.42015      110.51168
C         49.44222       45.97368      109.60795
O         48.45638       44.02370      110.60370
H         46.17288       44.73838      111.70802
H         46.92967       46.93489      109.98023
H         48.48774       45.88892      111.51437
H         48.31424       43.77197      111.55327
H         50.43753       45.71039      110.02324
H         49.36794       45.55740      108.58190
H         49.37060       47.08110      109.54516
N         46.70060       46.07929      107.52518
C         46.50033       45.66327      106.13652
C         47.53206       44.62942      105.70068
O         47.51876       43.51350      106.19581
C         45.03720       45.19060      105.88607
C         44.00093       46.28745      106.25513
C         44.82918       44.71001      104.43602
C         44.09589       47.57962      105.43104
H         46.91337       47.07669      107.67854
H         46.66442       46.55689      105.50060
H         44.82906       44.31998      106.53983
H         44.11302       46.55115      107.32775
H         42.97892       45.87016      106.12421
H         45.48014       43.83913      104.21421
H         43.77841       44.38182      104.28776
H         45.06804       45.50930      103.70505
H         45.07382       48.08273      105.57008
H         43.93476       47.38144      104.35182
H         43.30960       48.28725      105.76606
N         48.43573       44.93745      104.72571
C         49.41249       43.99140      104.19967
C         50.81983       44.50326      104.45397
O         51.60438       44.63829      103.52518
C         49.12133       43.69960      102.70195
C         49.11239       44.94407      101.80153
O         47.86694       43.07702      102.59206
H         48.42709       45.88714      104.32700
H         49.34336       43.01559      104.73192
H         49.92357       43.01882      102.32286
H         48.02783       42.12889      102.35080
H         50.07366       45.49250      101.83927
H         48.93741       44.63573      100.74972
H         48.29509       45.63696      102.08901
N         51.21846       44.76830      105.72805
C         52.56860       45.18908      106.07289
C         53.16658       44.07231      106.90804
O         53.03434       44.08636      108.12347
C         52.52702       46.56814      106.78018
C         53.93484       47.10863      107.07799
O         51.81302       47.49680      105.99816
H         50.54425       44.63129      106.49719
H         53.19223       45.31563      105.16008
H         51.98240       46.46875      107.74397
H         52.36284       47.72395      105.20289
H         54.50986       47.23100      106.13394
H         53.85903       48.10047      107.57218
H         54.49144       46.42028      107.74588
N         53.72364       42.99608      106.27384
C         54.13163       41.74160      106.90797
C         52.92714       40.98824      107.42642
O         52.12944       41.56879      108.14823
C         55.15631       41.88358      108.04211
C         56.39765       42.68749      107.65693
C         57.49595       42.45314      108.70698
C         58.72635       43.34607      108.51239
N         58.44058       44.73877      108.86290
H         53.82608       43.04358      105.24813
H         54.61960       41.11498      106.12698
H         55.45866       40.84440      108.30751
H         54.70574       42.34244      108.94892
H         56.09825       43.75355      107.58821
H         56.79059       42.36171      106.66881
H         57.81428       41.38979      108.61712
H         57.10578       42.60576      109.73677
H         59.09945       43.27260      107.46679
H         59.52734       42.97539      109.18964
H         57.72022       45.14882      108.22874
H         58.10843       44.79245      109.85422
H         59.31845       45.29877      108.77741
N         52.74663       39.66609      107.14404
C         51.56106       38.96324      107.61012
C         50.31499       39.52608      106.90577
O         49.20946       39.22087      107.70229
C         51.64624       37.43386      107.42415
C         52.65902       36.79680      108.37674
C         52.68857       35.30894      108.18360
O         53.03713       34.83464      107.11410
O         52.32380       34.48982      109.18838
H         53.47014       39.15803      106.61310
H         51.45095       39.16209      108.70140
H         51.89044       37.18820      106.36808
H         50.65327       36.98940      107.66163
H         52.34992       37.02100      109.42224
H         53.67453       37.21186      108.21006
N         50.11078       38.98879      105.54717
C         51.11733       39.43140      104.57972
H         52.09841       38.96387      104.78538
H         50.82344       39.08380      103.56566
H         51.20707       40.53902      104.56613
H         49.19549       39.35068      105.20450
Ca        47.56749       40.51518      106.88192
O         45.94804       38.23379      108.18977
H         45.55404       39.11956      108.38932
H         46.48536       38.01518      108.99219
O         48.35926       40.59942      110.24320
H         48.91688       41.01498      110.94781
H         48.15831       39.69247      110.58556
O         49.32083       42.69949      108.30246
H         50.10968       43.15986      108.68313
H         49.63771       42.33595      107.43922

Ca 1.0



