%chk=apoCaM-CA-Ng.loop1.water5.frame526.chk
%nprocshared=20
%mem=10GB
%nosave
#b3lyp/svp scf=(tight,noincore,xqc) Test 
#IOP(5/87=12) Density=Current Pop=(MK,readradii) iop(6/33=2) iop(6/42=6)

apoCaM-CA-Ng.loop1.water5.frame526 

   0  1 
C         91.42709       11.07836       42.89117
C         91.00938       11.69642       41.58867
O         91.82234       12.33710       40.93911
H         92.49188       11.30105       43.11417
H         90.79828       11.48215       43.71308
H         91.29288        9.97710       42.84234
N         89.72746       11.53989       41.15388
C         89.17010       12.09722       39.92081
C         89.80655       11.44566       38.68564
O         90.81518       10.76531       38.81676
C         89.25506       13.64625       39.96146
C         88.31587       14.41748       39.06824
O         87.44353       13.86835       38.41867
O         88.38410       15.76177       39.06213
H         89.08389       10.99669       41.75167
H         88.09614       11.80213       39.93141
H         90.29959       13.95727       39.75411
H         88.99623       13.97933       40.99052
N         89.17947       11.49286       37.47105
C         89.57105       10.74627       36.27438
C         89.40226        9.23346       36.42200
O         89.56859        8.53799       35.43195
C         90.96769       11.13641       35.74904
C         91.01885       12.62447       35.37107
C         92.33118       12.97210       34.65361
C         92.36679       14.42394       34.14519
N         92.36516       15.40056       35.23499
H         88.31393       12.03186       37.38246
H         88.84566       11.01517       35.47216
H         91.15954       10.54375       34.82714
H         91.76503       10.89166       36.48205
H         90.89334       13.23707       36.28817
H         90.18043       12.84435       34.67370
H         92.42357       12.31237       33.76241
H         93.20002       12.77978       35.31937
H         91.50047       14.60895       33.47083
H         93.29527       14.55909       33.54758
H         92.44269       16.36019       34.82711
H         91.47660       15.35048       35.78109
H         93.18381       15.23510       35.86427
N         89.00299        8.66205       37.59623
C         88.64793        7.26256       37.75661
C         87.20595        7.28125       38.26315
O         86.99378        7.90386       39.29294
C         89.62305        6.62303       38.77129
C         89.48492        5.13381       38.92659
O         88.69196        4.49703       38.25528
O         90.28703        4.48587       39.79208
H         88.87138        9.23751       38.43103
H         88.76622        6.73300       36.79487
H         89.50128        7.10792       39.76411
H         90.66348        6.80851       38.42552
N         86.12991        6.75128       37.61092
C         86.14642        5.88478       36.44776
C         85.27537        4.69700       36.76500
O         84.31108        4.45059       36.05739
H         85.19791        6.96341       38.00503
H         87.15952        5.53554       36.18701
H         85.71765        6.42651       35.57645
N         85.50549        3.98946       37.90569
C         84.58741        2.97129       38.40740
C         84.80606        2.72100       39.89587
O         85.79764        3.15596       40.46350
C         84.62562        1.68931       37.54620
C         86.00583        1.10053       37.47726
O         86.60081        1.04322       36.41162
O         86.58882        0.64516       38.60128
H         86.29094        4.29258       38.49308
H         83.56536        3.40693       38.35881
H         84.29051        1.94241       36.51835
H         83.92213        0.93085       37.94970
N         83.82142        2.12126       40.62247
C         83.87514        1.99706       42.07020
C         83.88451        3.33207       42.81069
O         83.93930        3.29125       44.02663
H         82.98569        1.76470       40.13763
H         84.78302        1.41892       42.34856
H         82.98667        1.42648       42.41632
N         83.82598        4.54449       42.18055
C         83.93519        5.82578       42.88155
C         85.29931        5.95155       43.56633
O         86.31800        5.88380       42.89385
C         83.66880        6.99319       41.88582
C         83.77935        8.38270       42.52825
O         84.49085        6.91116       40.74848
H         83.69645        4.57119       41.16172
H         83.13466        5.88004       43.65257
H         82.62013        6.88309       41.53220
H         85.41492        7.12636       41.02621
H         84.82033        8.57738       42.85899
H         83.50581        9.16077       41.78415
H         83.09745        8.46454       43.40006
N         85.37867        6.12106       44.92015
C         86.63859        6.22018       45.66495
C         86.84762        5.00054       46.56674
O         87.82966        4.96409       47.29534
C         86.70933        7.55065       46.48072
C         85.63285        7.62623       47.59810
C         86.63463        8.76113       45.53264
C         85.81327        8.82321       48.53575
H         84.49988        6.14911       45.45800
H         87.50362        6.22581       44.96509
H         87.70919        7.57580       46.96997
H         85.70329        6.71718       48.23242
H         84.61370        7.66575       47.15980
H         86.81233        9.71146       46.07472
H         87.41771        8.68496       44.74852
H         85.63988        8.81484       45.04592
H         85.68557        9.78577       48.00159
H         85.04730        8.78082       49.33866
H         86.81860        8.79359       49.00789
N         85.98579        3.94585       46.53690
C         86.11781        2.74768       47.35163
C         85.51477        2.99854       48.71184
O         84.37277        3.43152       48.78024
C         85.37306        1.56169       46.68448
C         86.02280        1.17706       45.35211
O         85.41127        0.43318       47.52284
H         85.19563        3.97291       45.88887
H         87.18555        2.44257       47.43442
H         84.31246        1.84713       46.47863
H         84.59114        0.45493       48.08278
H         86.04058        2.03017       44.64550
H         87.06921        0.84409       45.51918
H         85.45554        0.34399       44.88561
N         86.21377        2.68998       49.83912
C         85.65978        2.79569       51.18583
C         86.75210        2.48386       52.20040
O         87.08602        3.36245       52.98329
C         84.41061        1.87356       51.35729
C         83.79781        1.96714       52.75580
O         84.73809        0.53747       51.07238
H         87.17926        2.34235       49.72705
H         85.33557        3.84913       51.34903
H         83.62342        2.21456       50.65079
H         83.91818        0.09772       50.72537
H         82.89199        1.32596       52.80902
H         84.51286        1.61992       53.52480
H         83.50374        3.01424       52.97789
N         87.36214        1.26146       52.23282
C         88.44138        0.92921       53.15272
C         89.67622        0.45507       52.41987
O         89.60335       -0.01974       51.29469
C         88.02479       -0.21694       54.09613
C         87.07453        0.22850       55.21044
C         86.59359       -0.94916       56.08349
C         87.70152       -1.84674       56.67731
N         88.63596       -1.10946       57.52718
H         87.06350        0.53089       51.57194
H         88.73609        1.81477       53.75871
H         88.93402       -0.60555       54.60158
H         87.58407       -1.04468       53.49677
H         86.18127        0.71815       54.77753
H         87.59850        0.97842       55.84230
H         85.94150       -1.60019       55.46201
H         85.97406       -0.53715       56.90915
H         88.26105       -2.35613       55.86256
H         87.21651       -2.64553       57.28021
H         89.14235       -0.38637       56.97232
H         88.12672       -0.65624       58.31883
H         89.34225       -1.77843       57.91183
N         90.85453        0.47723       53.09974
C         92.08641       -0.13059       52.64559
C         92.54384        0.41263       51.29552
O         92.85334       -0.40387       50.43948
C         93.23725       -0.03747       53.69133
C         93.00242       -0.74827       55.05319
C         92.47199        0.11453       56.17906
O         91.34744        0.57860       56.16442
O         93.24755        0.33523       57.25882
H         90.85295        0.93545       54.01104
H         91.89991       -1.22254       52.52210
H         93.61337        0.99184       53.86020
H         94.06943       -0.60116       53.21219
H         94.00440       -1.07317       55.40824
H         92.39503       -1.67028       54.92364
N         92.63490        1.73919       50.98611
C         92.20531        2.82238       51.84392
H         91.11202        2.76018       52.01872
H         92.75018        2.81335       52.80602
H         92.39321        3.79304       51.33796
H         92.99804        1.99571       50.05462
Ca        88.22064        1.83113       39.61184
O         90.89914        1.84061       41.36606
H         90.90381        0.85410       41.28473
H         91.24260        2.01606       42.27786
O         89.50386       -0.82259       39.47991
H         89.82636       -1.42339       40.19745
H         89.44419       -1.39796       38.67674
O         88.42586        3.48982       42.69847
H         88.19907        4.05935       41.92095
H         88.92432        4.08924       43.30889
O         87.52173        0.48382       42.37755
H         88.18423        0.43712       43.11191
H         87.21719       -0.45045       42.25717
O         90.52937        1.96530       37.90915
H         90.18040        1.77003       37.00354
H         91.41774        1.53076       37.93871

Ca 1.0



