%chk=apoCaM-CA-Ng.loop1.water4.frame337.chk
%nprocshared=20
%mem=10GB
%nosave
#b3lyp/svp scf=(tight,noincore,xqc) Test 
#IOP(5/87=12) Density=Current Pop=(MK,readradii) iop(6/33=2) iop(6/42=6)

apoCaM-CA-Ng.loop1.water4.frame337 

   0  1 
C         65.26125       94.22591       69.40199
C         65.90041       95.52468       69.00595
O         67.02318       95.78125       69.41716
H         64.25262       94.11437       68.95027
H         65.89389       93.38210       69.05382
H         65.16348       94.17917       70.50581
N         65.24914       96.39191       68.18240
C         65.85312       97.63480       67.71687
C         65.99632       98.68468       68.82492
O         66.53935       99.73127       68.52791
C         65.03557       98.24719       66.54788
C         64.95406       97.35321       65.33341
O         64.32316       96.16501       65.39036
O         65.43419       97.72150       64.27259
H         64.31559       96.12651       67.83535
H         66.86265       97.40256       67.31223
H         65.53238       99.18651       66.22466
H         64.00804       98.50091       66.88652
N         65.53245       98.52674       70.09987
C         65.51850       99.63784       71.05922
C         66.69545       99.63356       72.02201
O         66.99155       98.56527       72.53879
C         64.24938       99.58756       71.92953
C         62.96834       99.88554       71.14840
C         61.80274      100.05958       72.12982
C         60.53121      100.52802       71.41899
N         59.46936      100.79416       72.38917
H         65.04826       97.65543       70.35830
H         65.49025      100.58689       70.51204
H         64.34735      100.37955       72.70319
H         64.17031       98.61199       72.45984
H         62.75692       99.08114       70.41044
H         63.10654      100.84429       70.60440
H         62.08046      100.83974       72.87368
H         61.61354       99.10631       72.67103
H         60.19690       99.75418       70.69378
H         60.74935      101.46644       70.86117
H         58.62105      101.13728       71.88436
H         59.22985       99.92084       72.91191
H         59.77805      101.53294       73.06358
N         67.32746      100.77568       72.47365
C         67.16645      102.17080       72.02120
C         65.72110      102.66835       72.03612
O         65.15031      102.83218       70.97037
C         67.82943      102.38155       70.64205
C         69.30022      102.09585       70.64162
O         69.92713      101.64596       71.74442
O         69.93192      102.22245       69.60482
H         68.01597      100.64101       73.23069
H         67.74323      102.84171       72.69643
H         67.70594      103.43882       70.33218
H         67.35707      101.73317       69.88240
N         65.03285      102.98325       73.16562
C         65.61283      103.05043       74.49597
C         64.55937      103.36693       75.55793
O         63.37399      103.34711       75.25776
H         64.04969      103.26557       73.03261
H         66.38395      103.85102       74.48375
H         66.09345      102.08431       74.75834
N         64.88804      103.64267       76.85140
C         66.25475      103.83555       77.31135
C         66.71213      105.23533       76.94247
O         65.87910      106.11470       76.76362
C         66.35397      103.67493       78.84329
C         65.94184      102.30191       79.30561
O         66.82645      101.51471       79.94611
O         64.80255      101.90097       79.12688
H         64.11862      103.80111       77.52137
H         66.91547      103.06832       76.85013
H         65.71502      104.43183       79.34987
H         67.40731      103.84932       79.15510
N         68.03647      105.52074       76.84012
C         68.54134      106.85350       76.55857
C         68.04298      107.39442       75.23741
O         67.48627      108.48230       75.20732
H         68.72253      104.76265       76.97861
H         69.65180      106.80875       76.51593
H         68.26131      107.54210       77.38550
N         68.25229      106.69146       74.09382
C         67.92845      107.19608       72.76050
C         66.42750      107.41169       72.58058
O         65.66052      106.47331       72.74706
C         68.44974      106.22818       71.66734
C         69.97029      106.02559       71.74749
O         68.14561      106.75754       70.40386
H         68.70755      105.77220       74.18789
H         68.46228      108.16156       72.61203
H         67.93563      105.25026       71.80209
H         68.27811      106.02843       69.74353
H         70.49509      106.99546       71.61651
H         70.27836      105.58213       72.71151
H         70.29722      105.33060       70.94555
N         65.95405      108.63061       72.17940
C         64.54474      108.90150       71.87297
C         64.08721      108.04190       70.68658
O         62.89224      107.80999       70.55594
C         64.32250      110.43422       71.56676
C         64.45350      111.35691       72.81558
C         62.93241      110.72610       70.95693
C         65.80644      111.37133       73.52021
H         66.64096      109.38370       72.03567
H         63.92604      108.62718       72.75647
H         65.06606      110.75011       70.80062
H         63.67221      111.09151       73.56092
H         64.26931      112.40512       72.48844
H         62.82300      111.81144       70.74195
H         62.79914      110.21604       69.98129
H         62.12197      110.41735       71.65087
H         65.78386      112.12648       74.33434
H         66.01998      110.39364       73.99218
H         66.61223      111.64971       72.80836
N         64.97550      107.58159       69.76037
C         64.61056      106.83938       68.55498
C         65.22151      105.44432       68.57580
O         65.86704      105.09306       69.55272
C         65.03156      107.65528       67.30151
C         66.53630      107.94203       67.21919
O         64.34130      108.88080       67.29538
H         65.97029      107.79407       69.89389
H         63.50889      106.69502       68.49672
H         64.77012      107.07135       66.38914
H         63.69687      108.86204       66.53970
H         66.87124      108.59352       68.05236
H         67.12007      106.99827       67.23480
H         66.75784      108.47885       66.27303
N         65.04634      104.58813       67.52584
C         65.56629      103.22194       67.48729
C         66.71103      103.10870       66.47491
O         67.10037      104.11846       65.90071
C         64.39185      102.20573       67.26137
C         63.72845      102.33225       65.88939
O         63.37834      102.31457       68.23619
H         64.52324      104.91809       66.70298
H         66.02008      102.95705       68.46104
H         64.79993      101.18126       67.33343
H         63.69976      102.84710       69.00467
H         63.22137      103.31222       65.77979
H         64.47086      102.20052       65.07636
H         62.95574      101.53906       65.78614
N         67.30900      101.90681       66.21686
C         68.41183      101.71688       65.27597
C         69.47850      100.72033       65.79503
O         70.43521      100.47059       65.07895
C         67.78300      101.32092       63.91669
C         68.79156      101.17959       62.76128
C         68.12413      101.17334       61.37274
C         67.06938      100.07729       61.14147
N         67.62896       98.73055       61.24718
H         66.88198      101.06653       66.61386
H         68.93114      102.68656       65.10671
H         67.08403      102.14608       63.65075
H         67.18988      100.38660       64.01858
H         69.39591      100.25947       62.89259
H         69.48035      102.05243       62.77305
H         68.92027      101.07891       60.60201
H         67.62818      102.15705       61.22080
H         66.65595      100.21512       60.11725
H         66.22689      100.19410       61.85680
H         67.95906       98.54596       62.22088
H         66.88114       98.03737       61.01519
H         68.41800       98.61425       60.57077
N         69.40604      100.13269       67.03122
C         70.37488       99.15070       67.53411
C         70.39030       97.91083       66.66090
O         69.34987       97.29889       66.46183
C         70.02522       98.75828       68.99380
C         70.89868       97.64593       69.61649
C         72.39255       97.88671       69.61704
O         73.11783       97.10222       69.02737
O         72.96241       98.90055       70.30188
H         68.64270      100.39632       67.65855
H         71.38679       99.61079       67.55251
H         68.97314       98.39785       69.03266
H         70.08297       99.66154       69.62267
H         70.69726       96.70321       69.06219
H         70.56561       97.48362       70.66438
N         71.56556       97.45530       66.14643
C         71.64779       96.24504       65.35938
H         72.70614       96.04423       65.08697
H         71.26882       95.38219       65.94884
H         71.05107       96.35374       64.43018
H         72.43972       97.96484       66.34525
Ca        71.80781      100.53970       71.29574
O         74.90877      101.71088       72.55648
H         75.73166      101.18248       72.40099
H         75.23389      102.62875       72.73673
O         74.02107      101.35089       68.93302
H         73.23383      101.53483       68.36134
H         74.33490      100.45754       68.64427
O         72.20519      103.85803       73.32223
H         72.14296      103.48950       74.23845
H         72.49778      104.79549       73.45140
O         73.60106      103.90297       70.58979
H         74.08296      104.09477       69.74666
H         73.71467      104.72419       71.13071

Ca 1.0



