%chk=apoCaM-CA-Ng.loop3.water5.frame482.chk
%nprocshared=20
%mem=10GB
%nosave
#b3lyp/svp scf=(tight,noincore,xqc) Test 
#IOP(5/87=12) Density=Current Pop=(MK,readradii) iop(6/33=2) iop(6/42=6)

apoCaM-CA-Ng.loop3.water5.frame482 

   0  1 
C         18.24603       50.29298       85.52701
C         17.46480       49.05740       85.19947
O         16.44897       49.15063       84.52595
H         19.27223       50.20211       85.11036
H         17.76079       51.18115       85.07802
H         18.31144       50.42501       86.62721
N         17.90383       47.84803       85.64467
C         17.27905       46.56838       85.33265
C         15.85332       46.49963       85.86857
O         14.93079       46.24370       85.10604
C         17.38059       46.29634       83.80889
C         16.99100       44.89773       83.40319
O         16.61427       43.98082       84.31639
O         17.03322       44.58388       82.22466
H         18.75789       47.82542       86.22388
H         17.87093       45.78072       85.85043
H         18.43438       46.44911       83.48999
H         16.74543       47.01832       83.25249
N         15.60461       46.72709       87.19005
C         14.26910       46.63685       87.77836
C         13.73066       47.99849       88.18118
O         12.68960       48.05822       88.82167
C         14.27711       45.63095       88.94691
C         15.00173       46.09822       90.23098
C         14.92377       45.01905       91.32659
C         15.86093       43.82971       91.05008
N         15.61596       42.73960       91.99252
H         16.39290       46.99190       87.80074
H         13.54604       46.23039       87.03840
H         14.70830       44.68637       88.56053
H         13.21982       45.42563       89.22649
H         14.47126       46.99900       90.60943
H         16.06114       46.37638       90.04819
H         13.86847       44.67859       91.41511
H         15.21830       45.45836       92.30514
H         16.91450       44.17940       91.13946
H         15.72154       43.43057       90.02625
H         16.31455       41.97990       91.82444
H         15.69939       43.07404       92.97918
H         14.65764       42.35126       91.83018
N         14.36268       49.14179       87.79576
C         13.91457       50.47289       88.16599
C         12.48915       50.73850       87.70256
O         12.15477       50.43053       86.56710
C         14.85905       51.52175       87.55401
C         14.57702       52.86877       88.13609
O         14.75577       53.08441       89.45152
O         14.18334       53.77157       87.42703
H         15.20732       49.07406       87.21067
H         13.98021       50.56117       89.27347
H         14.74537       51.52742       86.44622
H         15.91746       51.27923       87.78873
N         11.61732       51.37722       88.53113
C         10.25699       51.73954       88.16736
C         10.20855       52.61215       86.93247
O          9.46642       52.29446       86.01410
H         11.94476       51.66003       89.46729
H          9.81235       52.31071       89.01169
H          9.64344       50.82523       88.01493
N         10.99425       53.72134       86.83809
C         10.98855       54.62998       85.69290
C         12.27621       54.52363       84.86928
O         12.64489       55.47968       84.20226
C         10.64310       56.06075       86.17674
C         11.47902       56.53298       87.37945
N         11.03698       57.83286       87.86829
O         12.84256       56.56870       87.09667
H         11.64288       53.92012       87.61216
H         10.19179       54.34574       84.97088
H          9.58737       56.03936       86.52560
H         10.70275       56.78893       85.33910
H         10.04536       57.74322       88.18714
H         11.59884       58.06147       88.72032
N         12.90353       53.31715       84.73839
C         14.01421       53.00684       83.83712
C         15.37042       53.60741       84.17731
O         16.34954       53.16649       83.58900
H         12.51656       52.51888       85.25631
H         13.73909       53.24431       82.78757
H         14.16265       51.90576       83.89379
N         15.52589       54.60920       85.07775
C         16.81233       55.17611       85.46931
C         16.55410       56.45078       86.23106
O         15.81048       56.44498       87.20384
C         17.64824       54.19681       86.32019
C         18.86760       54.88360       86.90515
C         19.84207       55.46769       86.07567
C         19.01160       54.98077       88.30010
C         20.92943       56.14827       86.63451
C         20.09965       55.65858       88.85513
C         21.06021       56.24978       88.02348
O         22.10612       56.92089       88.54671
H         14.68218       55.02882       85.48138
H         17.39134       55.43511       84.55477
H         17.96666       53.33710       85.70176
H         17.01381       53.81129       87.14489
H         19.75300       55.41330       84.99836
H         18.27378       54.54384       88.96139
H         21.66618       56.60703       85.98697
H         20.18910       55.73093       89.93171
H         22.22382       57.02583       89.50186
N         17.12940       57.60233       85.81298
C         16.73400       58.89834       86.32056
C         15.32631       59.15585       85.81048
O         14.46526       59.50665       86.60095
C         17.77223       59.97855       85.90572
C         19.19511       59.64637       86.45166
C         17.34537       61.38018       86.36665
C         19.29738       59.48821       87.97713
H         17.80252       57.56550       85.03029
H         16.70996       58.89316       87.43197
H         17.84195       60.00975       84.79533
H         19.89388       60.45044       86.13525
H         19.56194       58.70379       85.99556
H         18.10854       62.13125       86.07244
H         16.40397       61.66723       85.86971
H         17.19526       61.42415       87.46508
H         18.70178       58.62298       88.33538
H         20.35310       59.29101       88.25649
H         18.96937       60.40602       88.50515
N         14.99673       58.88986       84.50894
C         13.62481       59.01458       84.02484
C         13.16681       60.46034       84.02660
O         11.96687       60.69847       84.02591
C         13.46919       58.41220       82.61954
O         14.25182       59.12016       81.69705
H         15.72313       58.53078       83.87152
H         12.97692       58.42289       84.71144
H         12.39572       58.45946       82.32484
H         13.79275       57.34769       82.63946
H         13.99262       58.78390       80.80008
N         14.07802       61.47640       84.01188
C         13.76033       62.89453       84.04694
C         13.04475       63.25493       85.33973
O         12.01143       63.90719       85.30906
C         12.99500       63.31316       82.78150
H         15.08115       61.24397       83.97333
H         14.72645       63.44668       84.04690
H         13.57886       63.03005       81.87923
H         12.00288       62.81954       82.72432
H         12.84150       64.41194       82.77074
N         13.54829       62.81266       86.52747
C         12.93622       63.06563       87.82251
C         13.99060       63.50640       88.82119
O         14.97512       62.80022       88.98861
C         12.27371       61.78041       88.32168
H         14.37172       62.19869       86.50926
H         12.12968       63.82686       87.74545
H         11.48968       61.46038       87.60229
H         13.01251       60.96063       88.42878
H         11.79012       61.96213       89.30575
N         13.81735       64.63961       89.56423
C         14.72188       65.07263       90.63075
C         16.08306       65.53504       90.12726
O         16.93828       65.82049       90.95587
C         14.85574       63.99134       91.73968
C         13.50243       63.53935       92.31631
C         12.72117       64.68462       92.89700
O         13.23523       65.41387       93.90577
O         11.61794       64.96107       92.45356
H         12.96509       65.19961       89.41559
H         14.27793       65.96786       91.11825
H         15.47135       64.39964       92.57156
H         15.38803       63.09518       91.35923
H         13.68391       62.79233       93.11867
H         12.90723       63.04252       91.51980
N         16.34800       65.71245       88.80196
C         17.62565       66.21563       88.34359
H         18.43466       65.50609       88.61683
H         17.61184       66.34062       87.24037
H         17.83155       67.20608       88.80565
H         15.62408       65.53026       88.09320
Ca        13.73177       55.93412       89.10657
O         16.51376       56.47541       90.53183
H         16.46188       56.19206       91.47908
H         17.03961       57.31409       90.55214
O         14.58846       58.79928       89.65470
H         14.90276       59.70284       89.40409
H         14.12889       58.46572       88.84545
O         12.91347       57.18822       91.72228
H         11.94424       57.09498       91.90026
H         13.10590       58.14596       91.88188
O         14.31975       54.36375       91.97959
H         15.12499       53.82605       92.18710
H         14.04453       54.74753       92.84912
O         11.44116       54.49548       90.21743
H         10.48897       54.74554       90.31815
H         11.58981       53.78712       90.89236

Ca 1.0



