%chk=apoCaM-CA-Ng.loop1.water3.frame159.chk
%nprocshared=20
%mem=10GB
%nosave
#b3lyp/svp scf=(tight,noincore,xqc) Test 
#IOP(5/87=12) Density=Current Pop=(MK,readradii) iop(6/33=2) iop(6/42=6)

apoCaM-CA-Ng.loop1.water3.frame159 

   0  1 
C         85.05116       52.05045       41.56120
C         85.21068       52.22070       40.08223
O         84.85702       51.31796       39.33634
H         84.39541       52.85210       41.96013
H         84.59927       51.06362       41.79839
H         86.04748       52.11470       42.04621
N         85.74350       53.37333       39.58803
C         85.95445       53.60797       38.16495
C         87.43030       53.84109       37.87854
O         87.77688       54.78813       37.19726
C         85.02741       54.74701       37.67229
C         85.24126       56.09336       38.32509
O         84.50914       57.02071       38.02320
O         86.21831       56.29942       39.23017
H         86.01507       54.10641       40.25849
H         85.67172       52.70071       37.58697
H         83.97713       54.43764       37.86555
H         85.14263       54.86985       36.57600
N         88.36921       53.00497       38.39382
C         89.79599       53.11081       38.10272
C         90.34908       51.73344       37.80255
O         90.10249       50.83865       38.60026
C         90.58031       53.69789       39.29001
C         90.37972       55.21540       39.44874
C         91.43234       55.78057       40.42021
C         91.31629       57.29548       40.64820
N         90.14857       57.63692       41.46046
H         88.05846       52.26544       39.04228
H         89.98263       53.78709       37.25758
H         91.65738       53.54852       39.07173
H         90.35150       53.15921       40.23506
H         89.34098       55.41985       39.77718
H         90.54571       55.71551       38.46677
H         92.43389       55.58864       39.97228
H         91.38751       55.25714       41.39865
H         91.28741       57.83470       39.67465
H         92.22649       57.63214       41.19317
H         90.13482       58.67027       41.61846
H         89.26342       57.35716       40.98348
H         90.21742       57.16123       42.39012
N         91.17670       51.44614       36.75451
C         91.69193       52.34063       35.71801
C         92.40331       53.58248       36.28373
O         92.02937       54.68617       35.91984
C         90.60046       52.75408       34.70127
C         89.60144       51.69338       34.33786
O         88.41551       51.91942       34.51721
O         89.94853       50.50532       33.82043
H         91.52866       50.47571       36.70768
H         92.43648       51.75271       35.14591
H         91.10624       53.13809       33.79243
H         90.00819       53.58528       35.11292
N         93.42606       53.54338       37.17769
C         94.03388       52.32654       37.67393
C         95.11429       52.59882       38.70715
O         95.29040       53.73538       39.12424
H         93.78396       54.45563       37.50070
H         94.47090       51.79414       36.81662
H         93.26859       51.68748       38.15842
N         95.86986       51.59445       39.22764
C         95.78216       50.20362       38.79107
C         96.43964       49.98717       37.42761
O         97.09294       50.88292       36.90885
C         96.39094       49.27564       39.86648
C         97.83003       49.58721       40.18580
O         98.69446       49.48384       39.33085
O         98.16771       49.98571       41.42783
H         96.51607       51.84243       39.99328
H         94.70953       49.92305       38.71564
H         96.30532       48.21336       39.55665
H         95.79196       49.40126       40.79541
N         96.30063       48.78427       36.79857
C         96.94107       48.42447       35.53817
C         96.47701       49.19263       34.30860
O         96.96211       48.87427       33.23181
H         95.74022       48.05448       37.26408
H         96.71697       47.35110       35.34131
H         98.04116       48.52343       35.64424
N         95.50596       50.14874       34.36115
C         94.93130       50.79567       33.18236
C         94.77011       52.31619       33.38885
O         94.99860       52.81322       34.48136
C         93.56935       50.09297       32.92703
C         93.72883       48.69722       32.31748
O         92.76772       50.83366       32.06004
H         95.05150       50.33889       35.25963
H         95.58489       50.66520       32.28983
H         93.05444       49.96497       33.91036
H         92.03021       51.20577       32.60759
H         92.73228       48.21542       32.23525
H         94.15917       48.77940       31.29481
H         94.37050       48.03872       32.93332
N         94.39137       53.11251       32.33859
C         94.12433       54.55961       32.41245
C         92.72910       54.93360       31.88337
O         92.41748       56.11657       31.88129
C         95.15447       55.37059       31.56318
C         95.21852       54.84249       30.10332
C         96.53155       55.40894       32.23603
C         95.93792       55.78044       29.14031
H         94.29489       52.65973       31.41826
H         94.17382       54.91379       33.46680
H         94.80911       56.42965       31.54228
H         94.18797       54.72522       29.70418
H         95.71206       53.84712       30.08071
H         97.21662       56.08257       31.68084
H         96.43273       55.82890       33.26103
H         96.97806       54.39681       32.29912
H         95.91103       55.33871       28.12129
H         95.41624       56.76090       29.11068
H         96.99683       55.92766       29.42729
N         91.86150       54.01005       31.38429
C         90.60122       54.32640       30.71796
C         89.44035       54.29552       31.69835
O         88.54606       53.46730       31.60345
C         90.40638       53.45891       29.44116
C         90.44069       51.94360       29.68030
O         91.40288       53.76963       28.50131
H         92.12094       53.03128       31.43696
H         90.61784       55.37604       30.34632
H         89.40627       53.69876       29.01023
H         91.16171       54.64647       28.10247
H         90.18817       51.41192       28.73978
H         91.45714       51.60971       29.96446
H         89.72291       51.62987       30.46264
N         89.37255       55.28095       32.63246
C         88.29286       55.46218       33.59463
C         86.95872       55.62097       32.87900
O         86.90442       56.29161       31.85698
C         88.57738       56.73534       34.46370
C         89.88297       56.66522       35.25590
O         87.56431       56.99975       35.39421
H         90.12185       55.98190       32.61915
H         88.23210       54.58481       34.26818
H         88.63652       57.60447       33.77226
H         87.00405       56.20107       35.53050
H         90.02901       57.61835       35.80767
H         89.82392       55.84794       35.99824
H         90.76989       56.52036       34.61073
N         85.81733       55.12620       33.44437
C         84.48165       55.37834       32.91279
C         83.59030       54.13855       32.99385
O         82.41402       54.27122       32.67981
C         83.80470       56.51567       33.72496
C         84.64029       57.80680       33.79663
C         83.92224       58.90023       34.60626
C         84.84467       60.05787       35.04547
N         85.76797       59.65129       36.10932
H         85.88992       54.66498       34.36232
H         84.53568       55.71981       31.85544
H         83.63490       56.16092       34.76604
H         82.81809       56.75317       33.26855
H         84.88591       58.19321       32.78207
H         85.57442       57.54917       34.29606
H         83.46984       58.47248       35.52629
H         83.10041       59.29877       33.97301
H         84.20366       60.86684       35.45566
H         85.41044       60.46857       34.18007
H         86.46181       58.97290       35.75022
H         86.29651       60.48100       36.46009
H         85.24253       59.23178       36.91005
N         84.03779       52.91277       33.41883
C         83.11055       51.80795       33.64021
C         82.29921       52.10859       34.89259
O         82.87060       52.12239       35.97485
C         83.83627       50.43960       33.77557
C         84.54833       50.03020       32.47006
C         84.99138       48.58228       32.48698
O         84.29219       47.75473       31.92552
O         86.17540       48.16337       32.99095
H         85.03652       52.75802       33.61320
H         82.43310       51.72740       32.75974
H         83.05299       49.67551       33.98509
H         84.55462       50.44254       34.62415
H         85.38275       50.71246       32.20828
H         83.78822       50.11693       31.66192
N         80.97000       52.40634       34.81220
C         80.15400       52.73987       35.96617
H         79.27982       52.05754       36.01396
H         80.71217       52.65746       36.92290
H         79.78579       53.78362       35.86961
H         80.51291       52.43326       33.88867
Ca        88.07576       49.32306       33.36970
O         88.08450       49.11284       36.22133
H         88.38290       48.16931       36.25416
H         87.10460       49.05905       36.08729
O         87.39111       49.82486       30.58229
H         87.19484       50.79294       30.51793
H         87.37726       49.50096       29.64779
O         90.38264       48.95812       31.04637
H         89.97097       48.68728       30.18920
H         91.24072       49.36452       30.77394

Ca 1.0



