%chk=apoCaM-CA-Ng.loop3.water5.frame1133.chk
%nprocshared=20
%mem=10GB
%nosave
#b3lyp/svp scf=(tight,noincore,xqc) Test 
#IOP(5/87=12) Density=Current Pop=(MK,readradii) iop(6/33=2) iop(6/42=6)

apoCaM-CA-Ng.loop3.water5.frame1133 

   0  1 
C         62.41110       73.40420       68.50469
C         61.30404       73.53715       69.51184
O         60.23290       74.00154       69.15064
H         63.32600       72.96925       68.96081
H         62.08296       72.73700       67.67935
H         62.66369       74.40116       68.08829
N         61.48929       73.12463       70.79709
C         60.45435       73.17676       71.82485
C         60.89122       73.98667       73.04335
O         60.18329       73.95319       74.04075
C         60.02457       71.74295       72.21048
C         61.09144       70.90422       72.85600
O         60.90562       70.43625       74.10508
O         62.10261       70.60082       72.24423
H         62.40496       72.72747       71.05444
H         59.53054       73.65770       71.43258
H         59.66482       71.21703       71.29971
H         59.16626       71.81664       72.91401
N         62.00303       74.78600       73.02350
C         62.45703       75.58920       74.15821
C         61.34805       76.49292       74.66984
O         61.02276       76.45677       75.84948
C         63.05575       74.68837       75.26221
C         64.33908       73.99695       74.76936
C         65.01011       73.12641       75.84643
C         64.19938       71.89113       76.28011
N         63.98033       70.96192       75.17102
H         62.54743       74.87403       72.15361
H         63.27144       76.26376       73.80989
H         62.29758       73.94768       75.59004
H         63.33331       75.31778       76.13689
H         65.06481       74.79133       74.48737
H         64.14044       73.39793       73.85750
H         65.21485       73.75537       76.74021
H         65.98819       72.77542       75.45173
H         63.22483       72.19095       76.72038
H         64.77454       71.36611       77.07424
H         63.37809       71.40264       74.44347
H         64.89413       70.67720       74.74929
H         63.49227       70.10945       75.52829
N         60.71400       77.33143       73.80635
C         59.65022       78.24500       74.20615
C         58.30527       77.83908       73.62812
O         57.33871       78.54078       73.89466
C         60.03716       79.68865       73.82178
C         60.28473       79.86205       72.34823
O         61.50637       80.22906       71.91897
O         59.39125       79.67088       71.53841
H         60.98880       77.30784       72.81179
H         59.51378       78.23090       75.30981
H         60.96674       79.95431       74.37059
H         59.24292       80.39708       74.14317
N         58.14436       76.71036       72.87321
C         56.85487       76.29031       72.35840
C         56.44375       74.97879       72.99902
O         56.37142       74.95922       74.21957
H         58.94801       76.10365       72.66116
H         56.91009       76.28357       71.26002
H         56.06025       77.02295       72.61222
N         56.08394       73.85154       72.31357
C         56.06424       73.68434       70.86266
C         56.74054       72.37623       70.46073
O         56.96663       71.53549       71.31957
C         54.59039       73.73278       70.40158
C         54.04533       75.13327       70.54114
N         53.00776       75.40352       71.36420
O         54.54977       76.03804       69.89154
H         55.72485       73.06272       72.87637
H         56.63851       74.47584       70.36247
H         53.99736       73.00311       70.99559
H         54.45969       73.45093       69.34605
H         52.56452       74.65920       71.92034
H         52.64848       76.36663       71.44549
N         57.13579       72.11749       69.17789
C         56.99861       73.06722       68.08263
C         57.51263       72.50147       66.79156
O         57.02074       71.46089       66.37622
H         57.58872       71.20822       68.98925
H         57.53841       74.00523       68.32777
H         55.93854       73.30128       67.90082
N         58.48747       73.14396       66.08372
C         58.95726       72.64715       64.79801
C         60.15269       73.44174       64.29018
O         60.11981       74.66475       64.28596
C         57.83350       72.68452       63.72905
C         58.24511       71.91488       62.49467
C         58.38418       72.55329       61.25267
C         58.49342       70.53260       62.58641
C         58.77720       71.82175       60.12557
C         58.88571       69.80582       61.46221
C         59.03150       70.44865       60.22647
O         59.41430       69.75806       59.13386
H         58.90435       74.00170       66.47713
H         59.27084       71.59275       64.95404
H         57.58745       73.74383       63.49372
H         56.90137       72.21003       64.09437
H         58.19543       73.61492       61.15666
H         58.38409       70.01393       63.53072
H         58.88659       72.32302       59.17265
H         59.07657       68.74388       61.55510
H         59.60259       68.80890       59.16708
N         61.20818       72.77091       63.75154
C         62.39828       73.38895       63.16459
C         62.03934       74.48139       62.16712
O         61.23277       74.24445       61.27804
C         63.29540       72.28438       62.52614
C         62.59158       71.55462       61.34446
C         64.65160       72.87120       62.09509
C         63.28593       70.25375       60.94659
H         61.14094       71.74260       63.73605
H         62.97728       73.85390       63.99298
H         63.48932       71.54289       63.33330
H         62.51979       72.22299       60.45984
H         61.55963       71.26762       61.62868
H         65.14102       73.37211       62.95715
H         65.33800       72.07703       61.74116
H         64.52037       73.61572       61.28081
H         63.30708       69.56028       61.81494
H         62.71351       69.76827       60.12782
H         64.31907       70.43032       60.59022
N         62.61522       75.71606       62.27313
C         62.26382       76.84127       61.41534
C         61.78200       78.00926       62.25556
O         61.94718       77.99818       63.46800
C         63.46292       77.25363       60.54472
O         64.53860       77.64961       61.35049
H         63.33075       75.87004       63.00088
H         61.43382       76.55223       60.73437
H         63.16544       78.09470       59.87797
H         63.76841       76.38633       59.91781
H         65.25031       77.95952       60.73152
N         61.14747       79.05292       61.65377
C         60.63603       80.23108       62.34234
C         61.76988       81.06802       62.90305
O         61.75146       81.42572       64.07166
C         59.57540       79.85343       63.39417
H         60.99983       79.00943       60.63332
H         60.13157       80.86658       61.58142
H         60.00554       79.24664       64.21747
H         59.13714       80.76882       63.84440
H         58.75973       79.27048       62.91702
N         62.79940       81.42895       62.08405
C         63.90401       82.29921       62.46637
C         64.62311       81.79300       63.70478
O         64.76944       82.54504       64.66019
C         63.39653       83.74057       62.63750
H         62.80390       81.06868       61.11745
H         64.63518       82.31012       61.62792
H         62.66087       83.81042       63.46682
H         64.24464       84.42428       62.85579
H         62.90684       84.08195       61.70109
N         65.08240       80.51046       63.76504
C         65.75544       79.97126       64.94113
C         67.11477       79.42215       64.55256
O         68.11427       79.90295       65.06814
C         64.86021       78.89920       65.59961
C         65.38533       78.35441       66.94371
C         65.38556       79.37592       68.05520
O         64.60413       79.18615       69.13521
O         66.10936       80.35712       68.00968
H         64.91185       79.88648       62.96182
H         65.90665       80.77963       65.68114
H         64.73681       78.04898       64.89484
H         63.84919       79.32692       65.77820
H         66.40358       77.92786       66.82381
H         64.70576       77.53005       67.25040
N         67.22365       78.41271       63.64128
C         68.48730       77.84219       63.21988
H         69.35628       78.31014       63.72784
H         68.49239       76.75513       63.44526
H         68.60479       77.98029       62.12443
H         66.37174       78.02250       63.21534
Ca        61.90742       80.45348       69.71367
O         62.21922       81.63107       67.05516
H         61.75592       80.82586       66.71175
H         63.02159       81.72040       66.48393
O         64.01926       82.51884       70.44727
H         64.54462       82.76719       69.64558
H         64.67440       82.53188       71.18944
O         59.30209       81.42391       68.27018
H         58.53597       80.88659       67.94722
H         59.31893       82.21647       67.67681
O         61.00280       77.94092       68.31097
H         60.76113       77.77075       67.36617
H         61.96728       77.72257       68.36456
O         60.54768       82.98960       70.83448
H         60.13063       83.84537       70.56362
H         60.55840       83.01861       71.82418

Ca 1.0



