%chk=apoCaM-CA-Ng.loop3.water4.frame579.chk
%nprocshared=20
%mem=10GB
%nosave
#b3lyp/svp scf=(tight,noincore,xqc) Test 
#IOP(5/87=12) Density=Current Pop=(MK,readradii) iop(6/33=2) iop(6/42=6)

apoCaM-CA-Ng.loop3.water4.frame579 

   0  1 
C         44.79798       -0.92821       69.94014
C         43.84793       -1.63901       69.02238
O         43.56812       -2.81059       69.23439
H         45.67296       -0.56010       69.36617
H         44.27891       -0.06252       70.40578
H         45.14990       -1.60311       70.74902
N         43.27511       -0.96166       67.99057
C         42.26420       -1.55151       67.12296
C         42.86073       -2.64535       66.25096
O         43.77259       -2.36571       65.48420
C         41.60461       -0.44927       66.27107
C         40.31219       -0.87824       65.63693
O         39.65153       -0.05712       65.02434
O         39.82448       -2.12184       65.81553
H         43.51681        0.03537       67.87435
H         41.47402       -1.96341       67.78143
H         42.31580       -0.06771       65.50617
H         41.33489        0.39189       66.94694
N         42.40141       -3.92570       66.33522
C         42.97212       -5.03219       65.57429
C         42.79173       -4.84649       64.07212
O         43.78608       -4.92078       63.36442
C         42.38158       -6.37819       66.05173
C         43.12542       -7.58163       65.44051
C         42.61607       -8.90976       66.01538
C         43.37239      -10.10112       65.40759
N         42.87450      -11.36796       65.94350
H         41.64406       -4.12874       67.00540
H         44.06079       -5.08070       65.80822
H         41.29480       -6.43297       65.82278
H         42.50998       -6.43249       67.15609
H         44.21119       -7.49344       65.66978
H         42.99453       -7.58224       64.33688
H         41.53157       -9.01200       65.79619
H         42.76115       -8.91475       67.11871
H         44.45904      -10.01053       65.63302
H         43.24319      -10.09728       64.30258
H         41.85685      -11.47424       65.72664
H         43.39762      -12.15738       65.49985
H         43.02081      -11.40465       66.97851
N         41.56771       -4.58868       63.51477
C         41.37712       -4.46583       62.06417
C         41.33204       -3.02502       61.58114
O         41.26069       -2.82788       60.37358
C         40.11746       -5.23686       61.59848
C         38.80192       -4.64145       62.04341
O         38.75256       -3.53077       62.80087
O         37.75809       -5.15858       61.68090
H         40.76051       -4.44965       64.14032
H         42.24556       -4.92945       61.54762
H         40.17784       -6.28876       61.94957
H         40.10439       -5.24695       60.48636
N         41.36683       -1.96656       62.43768
C         41.31541       -0.58901       61.98302
C         40.03117       -0.30296       61.23885
O         40.09661        0.09280       60.08515
H         41.43588       -2.13013       63.45153
H         42.19287       -0.38588       61.32887
H         41.37894        0.09277       62.85697
N         38.82211       -0.46855       61.85217
C         37.54849       -0.20115       61.18485
C         36.37662       -0.28920       62.16041
O         36.39862       -1.09622       63.07627
C         37.31513       -1.19715       60.02389
C         36.06432       -0.86523       59.24570
N         35.02267       -1.72801       59.20529
O         35.99110        0.19932       58.64958
H         38.82098       -0.77497       62.83271
H         37.58883        0.83822       60.78901
H         37.25234       -2.22434       60.44513
H         38.15918       -1.18363       59.30544
H         35.05960       -2.62659       59.70761
H         34.16942       -1.49114       58.67747
N         35.27501        0.48777       61.95686
C         34.07121        0.42585       62.76850
C         34.32576        0.82390       64.20411
O         34.86417        1.89529       64.44237
H         35.26928        1.13901       61.15845
H         33.62971       -0.59349       62.70566
H         33.32804        1.13515       62.34525
N         33.90954        0.01530       65.21954
C         34.08392        0.32923       66.63748
C         35.55224        0.36124       67.05077
O         36.43537        0.09513       66.24842
C         33.28986       -0.69192       67.49285
C         31.80346       -0.41761       67.44460
C         31.27983        0.66931       68.16915
C         30.92735       -1.23702       66.71478
C         29.90632        0.92694       68.17135
C         29.55256       -0.96638       66.70442
C         29.03780        0.11395       67.43816
O         27.71528        0.37873       67.44905
H         33.40310       -0.84603       64.96722
H         33.68054        1.34736       66.83758
H         33.57360       -0.66440       68.56591
H         33.52897       -1.71447       67.13346
H         31.93526        1.30642       68.75076
H         31.30687       -2.07633       66.14665
H         29.51655        1.75780       68.74721
H         28.88722       -1.59861       66.13032
H         27.07673       -0.15781       66.95825
N         35.85498        0.76068       68.32060
C         37.18065        0.99162       68.88941
C         38.02579       -0.26741       68.97498
O         38.40218       -0.80011       67.94317
C         37.97670        2.11304       68.14373
C         39.22340        2.49057       68.99651
C         37.09140        3.34327       67.87628
C         40.13500        3.55229       68.38623
H         35.06574        0.99104       68.94386
H         37.00263        1.36160       69.92478
H         38.31128        1.73345       67.15213
H         39.84944        1.58742       69.14345
H         38.89301        2.84926       69.99663
H         37.64875        4.11295       67.30521
H         36.22388        3.06820       67.24110
H         36.72153        3.78060       68.82607
H         40.99973        3.71450       69.06554
H         40.51475        3.21576       67.39964
H         39.61207        4.52371       68.28188
N         38.43299       -0.74803       70.18683
C         39.45383       -1.78245       70.32211
C         38.91312       -3.10219       70.82390
O         39.70152       -4.03411       70.91465
C         40.57652       -1.27150       71.24282
O         41.15422       -0.10541       70.71746
H         38.06365       -0.31884       71.04913
H         39.89747       -2.01070       69.33467
H         41.37802       -2.03403       71.34228
H         40.17814       -1.09206       72.27059
H         40.77441        0.66261       71.21953
N         37.59909       -3.29350       71.13287
C         37.08855       -4.60136       71.52593
C         37.23041       -5.57056       70.35059
O         36.65187       -5.29190       69.31107
C         35.61801       -4.49406       71.94379
H         36.94276       -2.50044       71.07675
H         37.64964       -4.93594       72.42173
H         35.23397       -5.48340       72.26702
H         35.52303       -3.78966       72.79798
H         34.99352       -4.12130       71.10405
N         37.99049       -6.70759       70.38589
C         38.70808       -7.17909       71.56506
C         37.71945       -7.58899       72.65096
O         36.54802       -7.75044       72.33698
C         39.60246       -8.37176       71.18922
H         38.06280       -7.25700       69.51398
H         39.35767       -6.35103       71.91301
H         40.32149       -8.06561       70.39892
H         40.18772       -8.74315       72.05265
H         38.98614       -9.21080       70.80103
N         38.05897       -7.75429       73.96188
C         39.38024       -7.53717       74.53661
C         39.33813       -6.34176       75.47120
O         40.11084       -5.41424       75.26947
C         39.95367       -8.82576       75.18483
C         39.25767       -9.41425       76.42854
C         37.87027       -9.92672       76.16954
O         37.68084      -10.79509       75.33279
O         36.82938       -9.44705       76.87713
H         37.29346       -8.00167       74.60329
H         40.11471       -7.28274       73.74882
H         40.99884       -8.59611       75.48880
H         40.00959       -9.61615       74.40419
H         39.25263       -8.66893       77.24961
H         39.86425      -10.27763       76.77754
N         38.43318       -6.26102       76.48563
C         38.35801       -5.11017       77.35782
H         37.53202       -5.24347       78.08845
H         39.31227       -4.99174       77.91256
H         38.15705       -4.19469       76.76089
H         37.75561       -7.01969       76.63538
Ca        37.69696       -2.59081       65.22882
O         35.62837       -3.34246       67.33142
H         36.12215       -2.91711       68.07680
H         34.81553       -3.71992       67.75243
O         36.87970       -5.59655       64.83247
H         37.68549       -6.10699       64.56764
H         36.47423       -5.31197       63.97581
O         38.61135       -4.53234       67.30839
H         38.72527       -5.45009       66.95580
H         39.37045       -4.40731       67.93037
O         34.63235       -3.13731       64.36083
H         34.51953       -4.04558       64.73615
H         33.78084       -2.95985       63.88878

Ca 1.0



