%chk=apoCaM-CA-Ng.loop1.water2.frame800.chk
%nprocshared=20
%mem=10GB
%nosave
#b3lyp/svp scf=(tight,noincore,xqc) Test 
#IOP(5/87=12) Density=Current Pop=(MK,readradii) iop(6/33=2) iop(6/42=6)

apoCaM-CA-Ng.loop1.water2.frame800 

   0  1 
C         33.03220       71.91406       71.11429
C         32.98328       73.38836       70.83941
O         34.00125       74.05390       70.96540
H         34.05336       71.60094       71.41984
H         32.32166       71.66106       71.92909
H         32.74744       71.35634       70.19736
N         31.81029       73.96437       70.45469
C         31.66225       75.38700       70.16213
C         30.68386       76.01913       71.15058
O         29.53107       75.61758       71.20815
C         31.26951       75.61143       68.68214
C         29.95884       75.01253       68.22424
O         29.22207       74.22560       69.03092
O         29.52224       75.31280       67.12497
H         30.98518       73.35323       70.37897
H         32.64130       75.89920       70.28734
H         32.07779       75.22566       68.02372
H         31.20833       76.71210       68.53317
N         31.11199       76.97247       72.02667
C         30.28216       77.45014       73.12843
C         29.14535       78.35811       72.67749
O         29.40479       79.47780       72.25864
C         31.17348       78.17176       74.16421
C         30.43530       78.54103       75.46009
C         31.42745       79.10298       76.48775
C         30.74919       79.39301       77.83168
N         31.73078       79.84047       78.82025
H         32.10162       77.26244       71.98928
H         29.87079       76.55088       73.64038
H         31.62647       79.08350       73.71359
H         31.99847       77.47465       74.43137
H         29.97054       77.62236       75.87966
H         29.63477       79.28547       75.25457
H         31.89291       80.03395       76.09457
H         32.22838       78.34988       76.65647
H         30.26026       78.46598       78.20578
H         29.96862       80.17443       77.69848
H         32.45431       79.09858       78.96692
H         32.19311       80.72179       78.49912
H         31.24663       80.01940       79.72933
N         27.84933       77.94715       72.79756
C         26.68994       78.83408       72.66116
C         25.79018       78.70216       73.89004
O         25.90010       77.71178       74.59984
C         25.91624       78.60145       71.34226
C         25.77130       77.15860       70.96481
O         25.22789       76.35155       71.70085
O         26.33081       76.77149       69.80396
H         27.67585       76.96844       73.07056
H         27.04825       79.88426       72.64919
H         26.50663       79.07804       70.52858
H         24.92414       79.09729       71.36180
N         24.92903       79.68565       74.28898
C         24.73239       80.95937       73.62094
C         25.46265       82.03909       74.37281
O         26.68007       81.95827       74.46120
H         24.42472       79.55308       75.17799
H         23.64208       81.15887       73.53979
H         25.13221       80.96902       72.59101
N         24.79691       83.09338       74.92144
C         25.47523       84.20454       75.57839
C         25.07901       84.26773       77.04032
O         23.89894       84.35222       77.34834
C         25.14177       85.51046       74.83982
C         25.88058       86.68243       75.42638
O         25.26435       87.63542       75.87479
O         27.22770       86.68784       75.45443
H         23.76824       83.12550       74.84920
H         26.57857       84.07573       75.51742
H         24.04508       85.69273       74.87112
H         25.44701       85.41022       73.77525
N         26.04595       84.25410       77.99932
C         25.77808       84.27147       79.42507
C         25.16867       82.97004       79.87170
O         24.12907       82.97965       80.51644
H         27.03570       84.23965       77.71032
H         25.15012       85.14785       79.69875
H         26.74729       84.36570       79.96074
N         25.79312       81.79961       79.56016
C         25.32721       80.48012       79.97414
C         24.90603       79.65512       78.77126
O         25.03082       80.12209       77.64485
C         26.42230       79.77107       80.81787
C         27.75183       79.58390       80.07120
O         26.66955       80.51091       81.98495
H         26.64442       81.85265       78.98091
H         24.41799       80.57495       80.60813
H         26.07375       78.75112       81.09953
H         25.95208       80.27726       82.63087
H         28.46787       79.03356       80.71713
H         27.60465       79.00368       79.13646
H         28.22045       80.55898       79.82404
N         24.35378       78.41585       78.94170
C         23.85238       77.61304       77.82733
C         22.63950       78.30486       77.18310
O         22.33960       78.00832       76.03901
C         23.56357       76.14072       78.27077
C         24.86336       75.49411       78.84033
C         23.02324       75.28786       77.10249
C         24.64589       74.12175       79.48208
H         24.26532       78.04976       79.90177
H         24.66492       77.56946       77.06577
H         22.79248       76.17000       79.07189
H         25.29273       76.12985       79.64005
H         25.62896       75.40953       78.03755
H         23.76404       75.24529       76.27447
H         22.79017       74.25540       77.42673
H         22.06834       75.69217       76.71521
H         25.60662       73.75950       79.90593
H         23.90615       74.20114       80.30693
H         24.30313       73.36730       78.74783
N         21.97141       79.31391       77.83018
C         21.01373       80.19363       77.16807
C         19.71655       80.34509       77.95456
O         19.76292       80.73887       79.10883
C         21.69773       81.57499       77.01847
C         20.82816       82.59886       76.29250
O         22.03983       82.09338       78.27991
H         22.23023       79.55657       78.79460
H         20.78635       79.83496       76.14152
H         22.61272       81.42608       76.39404
H         23.02766       82.07821       78.34503
H         19.91389       82.81469       76.87972
H         21.39248       83.54781       76.17771
H         20.54328       82.22318       75.28833
N         18.51024       80.14435       77.33866
C         17.23632       80.54504       77.94425
C         16.05617       80.05865       77.10912
O         15.18215       79.40264       77.66302
C         17.18076       82.09657       78.10783
C         15.89393       82.56613       78.79890
O         17.29431       82.72236       76.85511
H         18.50830       79.76315       76.38276
H         17.15130       80.08323       78.95370
H         18.03027       82.41211       78.75295
H         17.56514       83.66333       77.02130
H         15.80227       82.09691       79.80088
H         15.92250       83.66926       78.93134
H         14.99920       82.31452       78.19153
N         15.96244       80.33388       75.77651
C         14.82090       79.93047       74.96083
C         15.20312       79.89328       73.49106
O         15.77866       80.85329       72.99248
C         13.59601       80.84073       75.22751
C         13.77789       82.29888       74.76882
C         12.53479       83.14122       75.08207
C         12.67983       84.56173       74.51661
N         11.50122       85.37225       74.82117
H         16.74688       80.82372       75.31941
H         14.52517       78.89576       75.24625
H         13.36282       80.82218       76.31408
H         12.72114       80.41500       74.68767
H         13.93076       82.31694       73.66977
H         14.66358       82.74875       75.26763
H         12.38927       83.18633       76.18353
H         11.63974       82.66724       74.62189
H         12.80633       84.50540       73.41168
H         13.58210       85.04896       74.94790
H         11.62159       86.32217       74.40077
H         10.64378       84.93066       74.41619
H         11.39272       85.47131       75.85655
N         14.90216       78.80750       72.72478
C         15.29338       78.71628       71.32582
C         16.80902       78.58197       71.20233
O         17.39362       79.43286       70.54786
C         14.53408       77.60157       70.57193
C         13.02573       77.89634       70.50654
C         12.31272       76.86996       69.67437
O         11.71073       77.20767       68.66724
O         12.32792       75.57321       70.03691
H         14.35806       78.03646       73.14310
H         14.99032       79.65705       70.80926
H         14.68459       76.60916       71.03047
H         14.91969       77.56926       69.52844
H         12.86790       78.90092       70.05422
H         12.58602       77.89999       71.52618
N         17.55387       77.59724       71.79136
C         17.03978       76.54292       72.64067
H         16.36708       75.86984       72.08232
H         17.88196       75.91766       73.00661
H         16.52898       76.96794       73.52787
H         18.57573       77.61505       71.64639
Ca        27.05196       74.73669       69.21893
O         24.88500       73.26667       71.07699
H         24.43721       73.94846       70.51542
H         24.74613       73.57982       72.00602
O         27.42073       74.23395       73.06942
H         28.27312       74.38223       73.55097
H         26.73034       74.62608       73.66126

Ca 1.0



