%chk=apoCaM-CA-Ng.loop2.water4.frame615.chk
%nprocshared=20
%mem=10GB
%nosave
#b3lyp/svp scf=(tight,noincore,xqc) Test 
#IOP(5/87=12) Density=Current Pop=(MK,readradii) iop(6/33=2) iop(6/42=6)

apoCaM-CA-Ng.loop2.water4.frame615 

   -2  1 
C         68.97138      126.31152       92.78559
C         69.66302      127.26117       93.71855
O         69.20641      128.38491       93.87430
H         68.06960      126.78244       92.33863
H         69.66570      126.02685       91.96728
H         68.66273      125.39823       93.33487
N         70.79459      126.87170       94.37054
C         71.53978      127.75435       95.26209
C         70.67018      128.15841       96.43919
O         70.25382      127.29756       97.19999
C         72.82864      127.05354       95.74370
C         73.73189      127.92605       96.57859
O         74.78027      127.46700       97.00174
O         73.41485      129.20628       96.85597
H         71.14725      125.91669       94.19969
H         71.84206      128.65165       94.67660
H         73.40836      126.73120       94.85125
H         72.55868      126.14698       96.32877
N         70.34234      129.46619       96.63051
C         69.45492      129.92281       97.69378
C         68.07569      129.30561       97.51476
O         67.58012      129.32695       96.39650
C         69.32799      131.45125       97.64775
H         70.72250      130.16501       95.97287
H         69.89835      129.66551       98.67725
H         68.90148      131.78674       96.67791
H         68.66968      131.80614       98.46985
H         70.32750      131.91856       97.77878
N         67.34060      128.78473       98.53935
C         67.69650      128.88009       99.94691
C         68.78948      127.87979      100.40290
O         69.04186      126.68021       99.69908
C         66.43146      128.91289      100.84445
C         65.58241      127.68001      100.79710
O         64.29362      127.77620      100.41803
O         66.03183      126.60161      101.14636
H         66.39184      128.45314       98.30769
H         68.11975      129.89236      100.13380
H         65.81069      129.78196      100.53001
H         66.72149      129.10256      101.90080
N         68.90454      127.80590      101.86492
C         69.81761      126.81621      102.44184
C         71.27168      126.99346      102.04756
O         71.56467      127.78853      101.16658
H         69.17300      128.75528      102.21721
H         69.48175      125.78627      102.19766
H         69.73390      126.95452      103.53955
N         72.27306      126.29601      102.66091
C         72.09120      125.40725      103.80696
C         72.52446      123.97957      103.51202
O         72.48826      123.17414      104.43086
C         72.88992      125.97289      105.00384
C         72.45973      127.37759      105.36020
N         73.34461      128.40236      105.32688
O         71.30216      127.59060      105.68889
H         73.24066      126.45296      102.33479
H         71.03208      125.33918      104.11968
H         73.97460      125.96047      104.75938
H         72.73310      125.33117      105.89827
H         74.32751      128.24642      105.05994
H         73.04766      129.35876      105.57232
N         72.94335      123.57522      102.27592
C         73.42047      122.22358      102.02192
C         72.37230      121.13006      102.15520
O         72.76885      119.97416      102.08677
H         72.98651      124.24642      101.49689
H         74.24817      122.01671      102.73587
H         73.84133      122.16369      100.99546
N         71.03989      121.38279      102.33176
C         70.04383      120.32502      102.52751
C         69.03226      120.28290      101.38887
O         69.11846      121.08364      100.46637
C         69.34490      120.51393      103.89729
C         70.33174      120.38754      105.05934
O         68.71946      121.77181      103.94614
H         70.70765      122.35903      102.34059
H         70.52862      119.32352      102.53275
H         68.59540      119.70113      104.03390
H         67.83267      121.64834      104.37476
H         69.79311      120.49983      106.02370
H         70.81924      119.38948      105.04085
H         71.11454      121.16691      105.00356
N         68.05139      119.33418      101.38557
C         67.06465      119.16331      100.32643
C         65.67544      119.43759      100.87117
O         65.25222      118.80357      101.83008
C         67.15434      117.72185       99.73279
C         65.96923      117.42084       98.76501
C         68.50938      117.54695       99.02090
C         65.96075      115.99057       98.22092
H         68.00055      118.67138      102.17483
H         67.25348      119.87347       99.48954
H         67.09137      116.99314      100.57201
H         65.96245      118.13868       97.91732
H         65.01104      117.53407       99.31580
H         68.64369      116.50974       98.65558
H         68.58310      118.24212       98.15669
H         69.34949      117.75524       99.71463
H         65.96054      115.26009       99.05823
H         65.04253      115.82972       97.61770
H         66.83025      115.80165       97.56117
N         64.87497      120.31027      100.20466
C         63.46133      120.50795      100.47021
C         62.65660      119.69804       99.46671
O         61.77236      118.96012       99.87180
C         63.08292      121.99616      100.31375
C         63.85100      122.89980      101.22922
O         63.76955      122.74567      102.56374
O         64.53304      123.79913      100.76384
H         65.25996      120.76394       99.36808
H         63.19380      120.17805      101.49994
H         61.99807      122.12080      100.52175
H         63.26691      122.32191       99.26885
N         62.90712      119.82313       98.12834
C         62.12019      119.19609       97.07300
C         62.59276      119.72948       95.70204
O         62.93056      118.92748       94.83655
C         62.25254      117.64700       97.15398
C         61.14229      116.94505       96.41594
C         61.38728      116.18251       95.26195
C         59.83195      117.03161       96.91815
C         60.32976      115.52885       94.61700
C         58.78318      116.36930       96.27892
C         59.03035      115.62057       95.12676
H         63.66677      120.44244       97.84974
H         61.06576      119.50609       97.23435
H         62.19513      117.27554       98.19613
H         63.25978      117.35142       96.78428
H         62.38883      116.09770       94.85910
H         59.62731      117.60094       97.81696
H         60.51616      114.94695       93.72394
H         57.78034      116.43507       96.68109
H         58.21451      115.10934       94.63258
N         62.70445      121.07391       95.43511
C         63.22013      121.64994       94.19034
C         64.67852      121.34099       93.84982
O         65.15648      121.87423       92.85774
C         63.12140      123.16484       94.42507
C         61.94269      123.27069       95.36123
C         62.23010      122.12375       96.31749
H         62.54614      121.33318       93.36315
H         64.00952      123.50683       95.01079
H         63.06570      123.77349       93.49738
H         61.83353      124.25971       95.85506
H         61.01931      123.03734       94.78614
H         63.05812      122.42340       96.99323
H         61.31528      121.85973       96.88618
N         65.45124      120.51722       94.61320
C         66.84627      120.23298       94.33741
C         66.87234      118.89767       93.61330
O         67.34408      118.84790       92.48484
C         67.71297      120.24149       95.63941
C         67.86728      121.60114       96.41739
C         66.63351      122.08982       97.16398
O         66.58536      123.19730       97.95585
O         65.61698      121.44039       97.08913
H         65.03370      119.99653       95.38825
H         67.27927      120.99106       93.64641
H         68.73753      119.94518       95.32118
H         67.35408      119.45717       96.33957
H         68.22229      122.37934       95.71249
H         68.65376      121.44235       97.18693
N         66.29710      117.78945       94.16082
C         66.16910      116.54766       93.42656
H         65.57055      116.71778       92.50374
H         67.16844      116.15376       93.14967
H         65.63734      115.79318       94.04499
H         65.88962      117.83593       95.10640
Ca        67.60695      125.02107       98.93963
O         65.01040      126.10399       97.57808
H         64.35252      126.55915       98.15998
H         65.22147      126.77069       96.87743
O         70.06164      123.68484       99.79764
H         70.21553      123.13764       98.98672
H         70.76488      124.38006       99.76872
O         67.12457      123.63227      101.97391
H         68.10854      123.53849      102.01310
H         66.78531      122.70172      101.96991
O         68.41916      125.04019       96.08100
H         69.09468      124.61095       96.66501
H         68.18790      125.88595       96.54052

Ca 1.0



