%chk=apoCaM-CA-Ng.loop3.water3.frame234.chk
%nprocshared=20
%mem=10GB
%nosave
#b3lyp/svp scf=(tight,noincore,xqc) Test 
#IOP(5/87=12) Density=Current Pop=(MK,readradii) iop(6/33=2) iop(6/42=6)

apoCaM-CA-Ng.loop3.water3.frame234 

   0  1 
C         30.39952       48.80000       82.55306
C         31.53009       49.73346       82.23639
O         31.82055       49.91452       81.06439
H         29.46461       49.17208       82.08544
H         30.63325       47.79311       82.14530
H         30.24251       48.70740       83.64778
N         32.22593       50.35305       83.23658
C         33.37501       51.23650       83.02520
C         34.59463       50.49530       82.48213
O         35.59977       51.14484       82.22106
C         33.00362       52.45142       82.14615
C         31.83554       53.20407       82.71937
O         30.81259       53.33890       82.06723
O         31.91199       53.73446       83.95515
H         31.93294       50.19234       84.21211
H         33.68673       51.63938       84.01544
H         32.77316       52.13268       81.10890
H         33.86963       53.14602       82.09163
N         34.61280       49.13626       82.35426
C         35.76774       48.36588       81.91347
C         35.42044       47.50454       80.69672
O         36.25516       46.71169       80.28945
C         36.21580       47.45384       83.08506
C         36.51372       48.25894       84.36785
C         36.87111       47.38442       85.58055
C         38.21908       46.66238       85.44253
N         38.52446       45.90467       86.65691
H         33.79026       48.58588       82.64013
H         36.62128       49.02721       81.64520
H         37.12035       46.88747       82.77800
H         35.40353       46.72633       83.30779
H         35.59694       48.81842       84.65270
H         37.32392       48.99681       84.18208
H         36.05807       46.64708       85.76064
H         36.93175       48.05175       86.46813
H         39.02043       47.41558       85.27322
H         38.19928       45.96600       84.57792
H         38.56320       46.54543       87.48327
H         37.79569       45.17132       86.81601
H         39.45476       45.44041       86.54837
N         34.19226       47.57979       80.09279
C         33.72440       46.64795       79.07675
C         33.34992       47.38641       77.79651
O         32.49853       48.26356       77.83325
C         32.49997       45.91314       79.67001
C         31.96197       44.77937       78.84191
O         30.88476       44.10586       79.28549
O         32.49436       44.44056       77.79730
H         33.51233       48.27859       80.40636
H         34.50586       45.88825       78.85919
H         31.68373       46.64832       79.84716
H         32.78787       45.48143       80.65353
N         33.94282       47.05226       76.61255
C         33.62641       47.66765       75.32733
C         32.25872       47.30719       74.75758
O         31.98593       47.70844       73.63541
H         34.68237       46.33450       76.61825
H         34.36803       47.29637       74.58660
H         33.74161       48.77091       75.39518
N         31.35132       46.56169       75.44778
C         30.05566       46.14395       74.92041
C         29.18381       45.69269       76.08034
O         28.79054       44.53820       76.17038
C         30.22378       45.08802       73.79727
C         31.13820       43.93448       74.15521
N         32.24092       43.68026       73.41073
O         30.88245       43.21735       75.10922
H         31.57354       46.27474       76.40520
H         29.51534       47.01498       74.48720
H         30.63900       45.59782       72.90286
H         29.22312       44.69912       73.50820
H         32.47518       44.26098       72.59216
H         32.86146       42.89156       73.64598
N         28.84808       46.61448       77.02588
C         28.09280       46.31289       78.22563
C         26.69743       45.79497       77.96861
O         26.27360       45.64846       76.83044
H         29.17976       47.58482       76.90915
H         28.00462       47.24105       78.83267
H         28.65025       45.56240       78.82340
N         25.92001       45.49921       79.04377
C         24.56372       44.96341       78.96087
C         24.55859       43.55596       78.36806
O         25.60618       43.04593       77.99766
C         23.93965       44.95304       80.38396
C         23.88085       46.34109       80.98149
C         24.57545       46.63718       82.16680
C         23.12726       47.35212       80.35924
C         24.52297       47.92316       82.71396
C         23.07828       48.63670       80.90699
C         23.77750       48.92695       82.08675
O         23.74005       50.16256       82.62491
H         26.32199       45.68045       79.97741
H         23.94358       45.62007       78.31371
H         24.53891       44.27392       81.03106
H         22.90078       44.56803       80.36927
H         25.16003       45.87544       82.66701
H         22.57778       47.14863       79.44921
H         25.06393       48.13968       83.62659
H         22.49636       49.40480       80.41298
H         23.23874       50.88473       82.22012
N         23.39559       42.84938       78.30067
C         23.30526       41.46309       77.85253
C         22.19376       41.23772       76.82874
O         22.05382       40.10121       76.39929
C         23.13268       40.51967       79.09407
C         22.08690       40.98052       80.15040
C         24.48466       40.35337       79.81017
C         20.66127       41.13846       79.63564
H         22.54027       43.28550       78.66835
H         24.23783       41.15276       77.32910
H         22.86024       39.50266       78.73376
H         22.40472       41.94369       80.60568
H         22.05787       40.22491       80.96595
H         25.24596       39.95026       79.10786
H         24.84728       41.32074       80.21639
H         24.39040       39.62946       80.64839
H         20.29878       40.18267       79.20861
H         19.99938       41.42628       80.47994
H         20.59624       41.94549       78.88335
N         21.36738       42.23607       76.38710
C         20.21194       42.01171       75.51955
C         20.61059       41.42409       74.16679
O         21.29204       42.11933       73.42681
C         19.08312       41.27136       76.28040
O         19.46737       39.99874       76.71950
H         21.52322       43.20450       76.69870
H         19.75631       43.00155       75.28868
H         18.19613       41.18731       75.61329
H         18.80413       41.88723       77.16495
H         18.68331       39.62183       77.19694
N         20.22110       40.17456       73.76362
C         20.47131       39.60921       72.44170
C         21.94423       39.65838       72.06493
O         22.27562       40.20396       71.02085
C         19.57705       40.31301       71.40818
H         19.69942       39.56980       74.40889
H         20.15691       38.54169       72.45816
H         19.82689       41.39220       71.32960
H         19.69712       39.84203       70.40936
H         18.51132       40.21928       71.70880
N         22.88936       39.11058       72.88165
C         24.32356       39.18570       72.59746
C         25.13544       38.49212       73.67345
O         24.86856       38.71607       74.84395
C         24.80864       40.64408       72.53284
H         22.56951       38.64163       73.74358
H         24.53228       38.71277       71.61205
H         24.31944       41.21268       71.71926
H         24.62157       41.16530       73.49508
H         25.89952       40.66258       72.31812
N         26.23229       37.75194       73.32687
C         27.19084       37.13448       74.24637
C         26.65697       35.84353       74.84498
O         27.21544       34.80106       74.52910
C         27.74834       38.12798       75.29706
C         28.42349       39.32569       74.60818
C         28.94550       40.32320       75.59698
O         29.89622       39.97112       76.48155
O         28.53271       41.47189       75.58039
H         26.46373       37.68730       72.32381
H         28.06567       36.82378       73.62809
H         28.49968       37.60631       75.92954
H         26.94718       38.48636       75.97442
H         27.69421       39.83572       73.94396
H         29.27230       38.96741       73.98686
N         25.59591       35.81031       75.69886
C         25.06042       34.57719       76.24424
H         23.99895       34.47162       75.93701
H         25.60947       33.67804       75.89146
H         25.11684       34.60615       77.35165
H         25.13533       36.68088       75.98510
Ca        30.76540       41.55435       77.83039
O         28.06697       41.99922       79.19550
H         28.09973       42.21080       78.22854
H         27.84420       41.03535       79.22917
O         30.93176       41.04281       80.79771
H         31.54516       41.79248       81.00267
H         31.52987       40.27080       80.63323
O         33.71706       41.43978       77.93170
H         33.92319       41.53131       78.89612
H         34.38573       42.01057       77.47707

Ca 1.0



