%chk=apoCaM-CA-Ng.loop2.water6.frame110.chk
%nprocshared=20
%mem=10GB
%nosave
#b3lyp/svp scf=(tight,noincore,xqc) Test 
#IOP(5/87=12) Density=Current Pop=(MK,readradii) iop(6/33=2) iop(6/42=6)

apoCaM-CA-Ng.loop2.water6.frame110 

   -2  1 
C         39.65502       42.64703       92.98613
C         40.15147       41.25767       93.25007
O         41.29978       41.10043       93.63467
H         38.79025       42.86539       93.64542
H         40.45567       43.39331       93.18119
H         39.34135       42.73583       91.92427
N         39.34362       40.18591       93.02074
C         39.79128       38.80861       93.19547
C         40.14525       38.18107       91.85149
O         40.65645       37.07253       91.84746
C         38.69846       38.01433       93.93910
C         39.13354       36.62157       94.29945
O         38.53009       35.65509       93.86137
O         40.18395       36.43485       95.12128
H         38.40027       40.35437       92.63595
H         40.72263       38.79653       93.80431
H         37.78671       37.97429       93.30065
H         38.43543       38.54048       94.88151
N         39.91643       38.84134       90.67655
C         40.26797       38.37536       89.34438
C         41.76958       38.42199       89.10842
O         42.20492       39.34246       88.43090
C         39.61212       37.03418       88.99123
H         39.44817       39.75735       90.69686
H         39.82992       39.11608       88.63782
H         39.98817       36.20375       89.62098
H         38.51295       37.10814       89.13249
H         39.80721       36.78391       87.92856
N         42.61891       37.45256       89.56150
C         44.04774       37.45154       89.25240
C         44.92212       37.27923       90.49862
O         46.12905       37.15969       90.33299
C         44.35189       36.31538       88.24439
C         43.52059       36.39755       86.98714
O         42.18702       36.22221       87.04030
O         44.05532       36.57753       85.90495
H         42.23654       36.63458       90.05445
H         44.34945       38.40145       88.76250
H         44.17546       35.32310       88.71075
H         45.42576       36.38049       87.95816
N         44.40844       37.21857       91.76702
C         45.21931       36.85647       92.92674
C         46.35629       37.80556       93.27501
O         47.20511       37.40256       94.05781
H         43.39833       37.33983       91.92065
H         45.66285       35.85978       92.70857
H         44.57528       36.73937       93.82446
N         46.46745       39.05345       92.73713
C         47.64071       39.90830       92.94777
C         47.84091       40.32266       94.41048
O         46.97909       40.07410       95.24194
C         47.58695       41.17014       92.04962
C         47.62954       40.85352       90.56981
N         46.51571       40.50858       89.88047
O         48.69205       40.95060       89.97420
H         45.71571       39.37395       92.12065
H         48.53753       39.32046       92.64785
H         48.48835       41.78108       92.26820
H         46.70838       41.80648       92.28159
H         45.59140       40.47448       90.32792
H         46.57000       40.30872       88.87130
N         49.00738       40.94047       94.78233
C         49.33896       41.36054       96.14146
C         49.72001       42.82794       96.16119
O         50.64221       43.20664       95.45297
H         49.72995       41.09182       94.06249
H         50.21625       40.77645       96.49061
H         48.49843       41.16122       96.84042
N         49.01788       43.72092       96.91659
C         49.20673       45.17235       96.84173
C         48.01825       45.78526       96.10421
O         47.76299       46.97536       96.22218
C         49.42850       45.78668       98.25342
C         48.24177       45.63160       99.22058
O         50.60241       45.27433       98.83270
H         48.22710       43.36844       97.47749
H         50.10503       45.43478       96.24183
H         49.58512       46.88015       98.12041
H         50.44026       44.32084       99.05563
H         47.32571       46.09555       98.79945
H         48.03716       44.56497       99.44417
H         48.47712       46.14513      100.17786
N         47.25708       44.98983       95.30156
C         46.04818       45.38014       94.60188
C         46.19082       45.06301       93.11970
O         47.21854       44.54947       92.69644
C         44.85371       44.55144       95.19394
C         45.10078       43.01516       95.07510
C         44.58038       44.96958       96.64647
C         43.87714       42.16657       95.38391
H         47.53222       44.01021       95.17310
H         45.83768       46.46636       94.71892
H         43.93507       44.79724       94.62411
H         45.92278       42.68960       95.74704
H         45.38495       42.76778       94.03159
H         45.44852       44.73844       97.29844
H         44.37684       46.06069       96.69074
H         43.68452       44.45332       97.04591
H         43.05831       42.45533       94.69780
H         44.12723       41.09587       95.21849
H         43.54836       42.28657       96.43384
N         45.12501       45.24148       92.29440
C         45.03511       44.58271       91.00279
C         45.68667       45.41984       89.92549
O         46.65022       44.97013       89.32107
C         43.54713       44.27104       90.72629
C         43.34160       43.45955       89.49065
O         43.89274       42.23576       89.39142
O         42.64614       43.89012       88.58598
H         44.26768       45.65511       92.68838
H         45.54957       43.59638       91.06791
H         42.95957       45.21253       90.66538
H         43.14428       43.68037       91.57954
N         45.18478       46.64557       89.62012
C         45.71752       47.52077       88.57858
C         44.70898       48.63439       88.32448
O         44.30777       49.29041       89.27540
C         47.14941       48.01367       88.91459
C         47.30679       48.70085       90.25355
C         46.80467       49.99446       90.47895
C         47.99593       48.04872       91.29342
C         46.96361       50.60922       91.72381
C         48.15569       48.66790       92.53584
C         47.63572       49.94564       92.75250
H         44.34829       46.95078       90.13979
H         45.80635       46.92553       87.64709
H         47.53391       48.67225       88.10606
H         47.80278       47.11651       88.90503
H         46.30185       50.53931       89.69301
H         48.40615       47.05709       91.14667
H         46.56921       51.60358       91.88830
H         48.68364       48.15631       93.33013
H         47.75978       50.42466       93.71468
N         44.17785       48.86719       87.08619
C         43.06311       49.76507       86.83474
C         41.84881       49.43757       87.69296
O         41.32938       50.32859       88.34888
C         42.73995       49.53165       85.34980
C         44.10507       49.22217       84.78605
C         44.67066       48.28714       85.85272
H         43.40320       50.81214       87.00339
H         42.14631       48.59877       85.21907
H         42.18837       50.36335       84.86284
H         44.12027       48.81137       83.75465
H         44.68956       50.17185       84.80084
H         44.28971       47.24664       85.76195
H         45.77989       48.31738       85.77438
N         41.34235       48.16677       87.72663
C         40.12792       47.80284       88.45813
C         40.25460       47.98072       89.97282
O         39.23550       47.93089       90.64710
C         39.71128       46.36325       88.06218
C         38.35702       45.91106       88.63831
C         37.87249       44.60887       88.05532
O         38.50632       44.02439       87.19115
O         36.70237       44.09313       88.47587
H         41.81347       47.44139       87.16388
H         39.32672       48.48887       88.10440
H         40.50082       45.63684       88.35827
H         39.62862       46.35302       86.95230
H         37.58829       46.68085       88.41661
H         38.44248       45.78385       89.73716
N         41.45308       48.21489       90.57803
C         41.60457       48.46243       91.99842
H         42.07090       49.46028       92.14408
H         40.63503       48.45418       92.53919
H         42.26673       47.69049       92.44235
H         42.30933       48.21987       90.01840
Ca        42.93649       41.72502       86.71513
O         41.64363       44.07769       85.59870
H         40.67511       44.07209       85.39535
H         42.03836       44.69097       84.92977
O         45.68266       43.12751       86.65032
H         45.48262       43.71670       85.88061
H         45.28252       43.59554       87.42414
O         44.05955       41.86620       83.97122
H         43.19676       41.40201       83.82800
H         44.68466       41.14814       84.24270
O         45.02609       39.72746       86.60490
H         45.81894       39.16543       86.42065
H         44.29981       39.32063       86.06862
O         40.23391       41.70072       88.19792
H         40.15037       42.02784       87.26745
H         39.30102       41.55567       88.49588
O         41.32853       39.82393       85.34403
H         41.11310       38.86032       85.40617
H         40.72208       40.17793       84.64633

Ca 1.0



