%chk=apoCaM-CA-Ng.loop4.water5.frame632.chk
%nprocshared=20
%mem=10GB
%nosave
#b3lyp/svp scf=(tight,noincore,xqc) Test 
#IOP(5/87=12) Density=Current Pop=(MK,readradii) iop(6/33=2) iop(6/42=6)

apoCaM-CA-Ng.loop4.water5.frame632 

   -3  1 
C          3.51079       45.78993        7.71532
C          4.69430       46.70881        7.72521
O          5.08938       47.15914        6.66119
H          2.63448       46.32319        7.28938
H          3.73737       44.90425        7.08532
H          3.25552       45.44518        8.73859
N          5.31006       47.04906        8.89479
C          6.45544       47.95042        8.96506
C          6.06876       49.29832        8.39477
O          6.64290       49.73307        7.40467
C          7.69286       47.33396        8.27292
C          8.06434       46.03314        8.91792
O          8.06706       44.89574        8.20125
O          8.35950       45.99927       10.10131
H          4.94465       46.66894        9.78110
H          6.72805       48.10871       10.03335
H          8.55606       48.02850        8.36618
H          7.50478       47.16923        7.19165
N          5.07925       50.01576        8.99896
C          4.60379       51.30216        8.49955
C          5.06038       52.42650        9.40794
O          5.12863       52.21119       10.61009
C          3.06440       51.34971        8.25781
C          2.15423       51.51029        9.51123
C          2.61457       50.18388        7.36679
C          2.15494       50.38060       10.53981
H          4.67934       49.62738        9.85931
H          5.04611       51.45414        7.50355
H          2.87312       52.27628        7.67382
H          1.10973       51.62473        9.14770
H          2.41253       52.45451       10.03821
H          1.54050       50.29336        7.10575
H          3.20017       50.18502        6.42315
H          2.76264       49.20795        7.87275
H          1.90281       49.40852       10.06963
H          3.11804       50.32148       11.07673
H          1.38899       50.60191       11.31273
N          5.37014       53.67447        8.95132
C          5.35855       54.09351        7.54980
C          6.42686       53.36576        6.75908
O          6.15759       52.91892        5.65331
C          5.63600       55.60690        7.42704
C          4.64508       56.43129        8.20085
O          5.07527       57.25562        9.17516
O          3.45213       56.36190        7.95143
H          5.63657       54.37524        9.66133
H          4.35549       53.92240        7.10191
H          5.57443       55.90314        6.35590
H          6.66105       55.83549        7.79160
N          7.66580       53.19621        7.29739
C          8.79668       52.62638        6.59582
C          9.38335       53.67663        5.69281
O         10.34897       54.31616        6.08575
H          7.82919       53.50185        8.26812
H          8.55465       51.66843        6.08301
H          9.57012       52.39155        7.35928
N          8.84806       53.91723        4.46845
C          9.30995       54.98475        3.58974
C          8.16049       55.84878        3.07449
O          8.43060       56.74281        2.28450
C         10.18126       54.40832        2.44231
C          9.60025       53.32027        1.57045
O          8.40078       52.76469        1.81461
O         10.26602       52.89503        0.64036
H          8.09823       53.29449        4.13903
H          9.98608       55.67752        4.13846
H         11.10396       53.98588        2.89584
H         10.49375       55.25323        1.78986
N          6.85781       55.65999        3.45545
C          5.75070       56.39466        2.85632
C          5.51598       56.00025        1.40301
O          4.64870       56.58499        0.77102
H          6.62013       54.97017        4.17777
H          5.94686       57.48625        2.94098
H          4.81421       56.17203        3.41269
N          6.24473       55.00464        0.81617
C          6.15100       54.56479       -0.56594
C          4.84145       53.86613       -0.87753
O          4.48168       53.78425       -2.04324
C          6.55734       55.68920       -1.54517
C          8.01128       56.12485       -1.26746
C          8.52283       57.20635       -2.18155
N          9.79620       57.64400       -2.04352
O          7.80484       57.69206       -3.04326
H          6.93713       54.50678        1.37162
H          6.90296       53.75578       -0.70982
H          5.86794       56.55505       -1.45447
H          6.50488       55.30729       -2.58786
H          8.67585       55.23985       -1.37896
H          8.09642       56.49914       -0.22819
H         10.41409       57.24034       -1.32306
H         10.16872       58.38318       -2.65715
N          4.15631       53.20474        0.10449
C          3.00842       52.33992       -0.16442
C          3.20445       50.91452        0.36189
O          2.33803       50.09726        0.07643
C          1.70317       52.94924        0.42371
C          1.77162       53.15315        1.94780
C          1.35612       54.27334       -0.26837
H          4.46961       53.30371        1.07951
H          2.86138       52.23864       -1.26215
H          0.86621       52.24657        0.21100
H          2.55575       53.88991        2.22164
H          0.79807       53.53296        2.32403
H          1.98273       52.19438        2.46382
H          2.14346       55.03582       -0.09139
H          1.24912       54.11298       -1.36266
H          0.38909       54.66249        0.11619
N          4.24381       50.54288        1.17590
C          4.31473       49.22321        1.81122
C          5.70310       48.59770        1.60044
O          6.57838       49.26499        1.06353
C          3.96951       49.44831        3.31570
C          3.29591       48.29494        4.03697
N          2.03327       48.43277        4.51312
O          3.88127       47.24417        4.22262
H          4.94801       51.23714        1.46262
H          3.53853       48.55955        1.37338
H          3.22891       50.27594        3.35445
H          4.86114       49.81408        3.87063
H          1.50777       49.31153        4.39393
H          1.57528       47.65772        5.01499
N          5.99345       47.34299        2.05085
C          7.34235       46.78384        2.11070
C          7.34028       45.31163        1.72864
O          6.53339       44.56364        2.25834
C          7.86332       46.99152        3.54566
C          9.22769       46.39034        3.79423
C          9.41007       45.51464        4.87637
C         10.32661       46.69818        2.97094
C         10.66437       44.95879        5.13256
C         11.57734       46.12395        3.21925
C         11.75123       45.25513        4.30078
O         12.96311       44.71213        4.53245
H          5.25088       46.80016        2.49826
H          8.03155       47.33875        1.43869
H          7.12832       46.57698        4.27130
H          7.92642       48.08717        3.72519
H          8.58280       45.26692        5.52875
H         10.21988       47.37137        2.13085
H         10.78984       44.29269        5.97498
H         12.41305       46.35686        2.57144
H         13.12080       44.10596        5.27066
N          8.23548       44.83147        0.81718
C          8.26665       43.45275        0.34044
C          9.65687       42.84119        0.56874
O         10.43087       42.80306       -0.37906
C          7.90575       43.49291       -1.16427
C          7.72658       42.09546       -1.77871
C          7.39850       42.20243       -3.24013
O          6.22364       41.73798       -3.70572
O          8.19793       42.70525       -4.01430
H          8.91258       45.48884        0.39934
H          7.48783       42.83096        0.82344
H          8.68638       44.06216       -1.71828
H          6.94308       44.03780       -1.28296
H          6.89906       41.57381       -1.25014
H          8.64795       41.48618       -1.67098
N         10.09976       42.33320        1.75960
C          9.34090       42.20397        3.00041
C          8.16590       41.26531        2.81250
O          8.36116       40.14617        2.35770
C         10.26697       41.64436        4.11067
C          9.56707       41.52677        5.47865
C         10.48605       41.03445        6.56666
O         10.00077       40.86222        7.80921
O         11.66065       40.78327        6.34404
H         11.07236       41.98262        1.76829
H          8.99726       43.20855        3.32354
H         11.13877       42.32538        4.21564
H         10.65011       40.64218        3.81244
H          8.71790       40.81577        5.40291
H          9.16788       42.51780        5.77949
N          6.91425       41.65789        3.17630
C          5.73497       40.83374        3.02025
H          5.00487       41.36506        2.37433
H          5.96245       39.85104        2.55738
H          5.27533       40.65997        4.01546
H          6.78480       42.58481        3.60304
Ca         8.60658       42.98456        9.26250
O          7.77051       40.50428       10.52712
H          8.42444       39.82438       10.22647
H          7.36019       40.11744       11.34032
O         11.08560       41.58266       10.65818
H         11.54487       40.86343       10.15653
H         10.71278       41.13073       11.45640
O          9.99068       44.18154       11.90388
H         10.96952       44.19481       12.05095
H          9.68116       45.06656       12.22128
O          6.62042       41.96981        7.23797
H          5.91866       42.27919        7.86439
H          6.54956       40.98235        7.25191
O         11.13035       44.53992        8.67287
H         11.15374       45.50745        8.88152
H         12.06715       44.23781        8.77539

Ca 1.0



