%chk=apoCaM-CA-Ng.loop1.water3.frame248.chk
%nprocshared=20
%mem=10GB
%nosave
#b3lyp/svp scf=(tight,noincore,xqc) Test 
#IOP(5/87=12) Density=Current Pop=(MK,readradii) iop(6/33=2) iop(6/42=6)

apoCaM-CA-Ng.loop1.water3.frame248 

   0  1 
C         57.00064       13.17666       99.09749
C         56.31580       11.89676       99.48051
O         55.50100       11.89510      100.39166
H         58.09993       13.05925       99.20250
H         56.76491       13.42091       98.03951
H         56.66536       14.01719       99.74074
N         56.60248       10.75427       98.79994
C         55.96337        9.46646       99.06597
C         56.38059        8.84445      100.40440
O         55.91853        7.74847      100.67679
C         56.30054        8.46025       97.93341
C         55.76613        8.88291       96.58577
O         56.19690       10.01239       95.99246
O         54.95142        8.18139       96.00748
H         57.28310       10.82387       98.02810
H         54.85870        9.60069       99.06395
H         55.84190        7.47649       98.17612
H         57.40054        8.31395       97.86625
N         57.26808        9.43150      101.26324
C         57.79483        8.77281      102.46350
C         57.53575        9.58195      103.72720
O         57.54165       10.80081      103.62250
C         59.31653        8.62351      102.26404
C         59.61353        7.56700      101.19136
C         61.12162        7.40873      100.96914
C         61.45410        6.25033      100.01412
N         61.20231        4.94240      100.62732
H         57.66264       10.35302      101.03278
H         57.35072        7.77411      102.59312
H         59.80538        8.30284      103.20525
H         59.76216        9.60661      101.99325
H         59.13393        7.83889      100.22585
H         59.17057        6.61363      101.53661
H         61.64887        7.23803      101.93303
H         61.49656        8.35898      100.53030
H         62.53481        6.30834       99.76086
H         60.87388        6.35493       99.07017
H         60.20204        4.82627      100.89081
H         61.44961        4.19030       99.94509
H         61.79471        4.82914      101.48183
N         57.39541        9.04333      104.99005
C         57.35384        7.63292      105.42131
C         58.59992        6.84808      105.05551
O         58.64331        6.27795      103.97790
C         56.02823        6.93603      105.03579
C         54.87644        7.57586      105.75979
O         55.13056        8.46253      106.74376
O         53.72488        7.31611      105.44822
H         57.30458        9.72811      105.75820
H         57.32967        7.63346      106.52776
H         56.04211        5.86328      105.30762
H         55.86484        7.01305      103.94688
N         59.66571        6.72280      105.90203
C         59.68576        7.24595      107.26433
C         61.00181        6.99881      107.98746
O         61.95879        6.56651      107.36067
H         60.47784        6.19260      105.55305
H         58.88784        6.71130      107.82542
H         59.48261        8.33969      107.26821
N         61.14251        7.19035      109.33343
C         60.05851        7.59611      110.22518
C         59.49617        6.37631      110.93067
O         60.04552        5.29018      110.80409
C         60.49721        8.71043      111.20776
C         61.57816        8.30029      112.17794
O         62.69508        8.00748      111.78349
O         61.32599        8.29871      113.50098
H         62.03983        6.90889      109.75261
H         59.22071        8.01499      109.63260
H         59.60997        9.02596      111.79881
H         60.84483        9.59743      110.63608
N         58.33960        6.47764      111.63945
C         57.67698        5.33682      112.24413
C         57.27299        4.31688      111.19961
O         57.61970        3.15215      111.33814
H         57.88098        7.39740      111.72369
H         56.75198        5.69309      112.74778
H         58.33200        4.87715      113.01647
N         56.52031        4.69453      110.12675
C         56.01966        3.75741      109.12005
C         57.16024        3.05672      108.40349
O         57.97586        3.72167      107.77848
C         55.13993        4.47051      108.06463
C         53.90869        5.13747      108.68054
O         54.70443        3.52607      107.11995
H         56.28121        5.69357      110.04594
H         55.38414        3.00202      109.63376
H         55.76603        5.24688      107.56677
H         54.48159        4.02450      106.29143
H         53.27537        4.38175      109.19032
H         54.19071        5.92207      109.40831
H         53.31457        5.61846      107.87527
N         57.26458        1.69755      108.45041
C         58.34392        0.97353      107.78294
C         58.18216        0.95808      106.25777
O         59.11089        0.51001      105.59527
C         58.50440       -0.47834      108.35030
C         57.32793       -1.41305      107.95364
C         58.71851       -0.43400      109.87975
C         57.50153       -2.85687      108.43597
H         56.58101        1.17694      109.01719
H         59.29165        1.50392      108.02939
H         59.43142       -0.90433      107.90416
H         57.26667       -1.45319      106.84617
H         56.36255       -1.02490      108.33911
H         58.98013       -1.43424      110.27914
H         59.55992        0.24477      110.13173
H         57.80970       -0.08225      110.41109
H         58.46200       -3.27820      108.06979
H         57.46946       -2.91817      109.54289
H         56.67020       -3.48085      108.04530
N         57.02779        1.35660      105.63331
C         56.80816        1.25116      104.18657
C         56.39948        2.58158      103.55266
O         56.15278        3.54612      104.26343
C         55.75181        0.15320      103.89145
C         54.37775        0.45064      104.51517
O         56.22633       -1.07623      104.37694
H         56.24175        1.68638      106.20865
H         57.75351        0.94058      103.68842
H         55.63107        0.08434      102.78569
H         55.71459       -1.78988      103.91315
H         53.66061       -0.35067      104.23862
H         54.43556        0.47974      105.62301
H         53.97691        1.41726      104.14527
N         56.34476        2.69951      102.19238
C         56.01639        3.94047      101.48557
C         54.51217        4.19727      101.42827
O         53.76558        3.29949      101.06461
C         56.61742        3.96910      100.05239
C         56.04353        2.94057       99.06852
O         58.00674        3.79165      100.14080
H         56.65095        1.88620      101.63732
H         56.53276        4.78642      101.99604
H         56.39932        4.98499       99.63942
H         58.41267        4.29624       99.38750
H         56.54107        3.06486       98.08304
H         56.21742        1.90266       99.41543
H         54.95915        3.10200       98.90776
N         54.01568        5.43722      101.71083
C         52.59672        5.80374      101.58111
C         52.22274        7.22796      102.06070
O         51.03216        7.51160      102.07071
C         52.08712        5.66486      100.11238
C         52.79686        6.61559       99.12043
C         52.00055        6.83476       97.81943
C         51.76384        5.57266       96.97955
N         50.96607        5.89364       95.79290
H         54.70523        6.11640      102.02761
H         52.02051        5.10141      102.22293
H         51.00141        5.90545      100.12136
H         52.16935        4.62329       99.74003
H         53.82498        6.24807       98.91387
H         52.88322        7.62608       99.57147
H         52.54616        7.57728       97.19757
H         51.01546        7.27768       98.08605
H         51.21695        4.81373       97.57882
H         52.74093        5.14405       96.66646
H         50.81039        5.02511       95.23242
H         50.03499        6.27720       96.07887
H         51.46293        6.59660       95.19849
N         53.12760        8.18106      102.44158
C         52.74887        9.53475      102.84392
C         52.10912       10.28918      101.69001
O         52.74010       10.46003      100.65557
C         54.00070       10.28761      103.35946
C         53.78188       11.76722      103.72174
C         52.64734       12.06988      104.67435
O         51.62066       12.56250      104.24028
O         52.80500       11.99157      106.00816
H         54.12663        7.97313      102.45589
H         52.03636        9.46954      103.69442
H         54.79038       10.26142      102.57440
H         54.39181        9.74551      104.23882
H         53.58446       12.32273      102.78073
H         54.72841       12.18347      104.13195
N         50.85832       10.81055      101.82705
C         50.23525       11.61688      100.80016
H         49.23460       11.95733      101.14418
H         50.85715       12.51626      100.59994
H         50.11489       11.02997       99.86633
H         50.33785       10.65939      102.70415
Ca        54.04487       10.37642      106.85481
O         52.28505       11.24372      109.89099
H         51.40625       11.19706      110.34501
H         52.74142       12.01532      110.31136
O         51.09455        9.50537      107.14204
H         51.17330        8.60634      106.73554
H         51.09303       10.12294      106.36952
O         52.79583        8.21233      109.30492
H         52.14559        7.51005      109.05107
H         52.76608        8.22953      110.29422

Ca 1.0



