%chk=apoCaM-CA-Ng.loop1.water2.frame794.chk
%nprocshared=20
%mem=10GB
%nosave
#b3lyp/svp scf=(tight,noincore,xqc) Test 
#IOP(5/87=12) Density=Current Pop=(MK,readradii) iop(6/33=2) iop(6/42=6)

apoCaM-CA-Ng.loop1.water2.frame794 

   0  1 
C         33.85743        1.85941       82.22745
C         33.96738        1.09971       83.51692
O         34.93139        0.36727       83.68710
H         32.94552        2.49295       82.20543
H         34.74348        2.51843       82.11321
H         33.81638        1.14957       81.37569
N         33.01309        1.23646       84.47953
C         33.06830        0.55848       85.77041
C         31.87384       -0.36758       85.95790
O         30.80874       -0.08790       85.42584
C         33.18387        1.58830       86.91994
C         32.00376        2.52116       87.08894
O         30.95805        2.49373       86.23708
O         31.96302        3.25708       88.06205
H         32.21827        1.86139       84.28526
H         33.98105       -0.07372       85.83079
H         34.10663        2.19376       86.78380
H         33.29205        1.01560       87.86731
N         31.97259       -1.47310       86.75410
C         30.85083       -2.36986       87.00898
C         30.22948       -2.03774       88.34973
O         30.93176       -2.00036       89.35036
C         31.29792       -3.84974       86.99530
C         30.08143       -4.79747       87.09283
C         30.49455       -6.27323       87.12849
C         29.25463       -7.18164       87.12628
N         29.63057       -8.59364       87.17799
H         32.86617       -1.66212       87.23355
H         30.09021       -2.26177       86.20243
H         31.99695       -4.03610       87.84108
H         31.83176       -4.06688       86.04525
H         29.42911       -4.62185       86.20882
H         29.49222       -4.58254       88.01138
H         31.09361       -6.46263       88.04640
H         31.11545       -6.50848       86.23764
H         28.66504       -6.99531       86.20022
H         28.61516       -6.94450       88.00441
H         28.76465       -9.17898       87.13732
H         30.24039       -8.83599       86.36370
H         30.13401       -8.79697       88.07174
N         28.88393       -1.86217       88.44180
C         28.18450       -1.66297       89.71038
C         26.69020       -1.88892       89.57138
O         26.16162       -1.80460       88.47107
C         28.50392       -0.29876       90.36998
C         28.73891        0.81916       89.39204
O         29.84008        1.34676       89.37374
O         27.81655        1.23266       88.50200
H         28.33465       -1.96721       87.57642
H         28.50968       -2.48268       90.38592
H         29.45148       -0.42002       90.93656
H         27.72138       -0.00910       91.10231
N         25.92703       -2.29595       90.62790
C         26.37876       -2.49496       92.00206
C         26.68805       -3.94401       92.30997
O         26.82126       -4.74257       91.39634
H         24.94280       -2.51371       90.43583
H         25.56423       -2.14161       92.66865
H         27.27489       -1.89754       92.25568
N         26.84459       -4.34286       93.60633
C         27.20668       -5.70575       94.00013
C         26.19460       -6.72114       93.48677
O         26.57080       -7.60144       92.72492
C         27.31290       -5.82824       95.54517
C         28.36357       -4.95238       96.17945
O         29.07870       -4.22541       95.50799
O         28.51520       -4.97443       97.51772
H         26.70902       -3.63459       94.34436
H         28.20308       -5.94960       93.56612
H         27.55265       -6.88060       95.81258
H         26.33717       -5.56841       96.00863
N         24.89424       -6.67465       93.89141
C         23.88446       -7.65021       93.50627
C         23.38487       -7.53425       92.07647
O         22.44140       -8.24059       91.75398
H         24.61169       -5.94567       94.56299
H         22.99270       -7.47127       94.14557
H         24.24518       -8.68020       93.72006
N         23.92340       -6.66312       91.17562
C         23.36291       -6.42105       89.84630
C         23.05199       -4.93518       89.70579
O         23.30388       -4.18584       90.63582
C         24.32903       -6.91435       88.73257
C         25.67882       -6.18609       88.68225
O         24.52543       -8.30337       88.83006
H         24.74284       -6.10896       91.44200
H         22.41082       -6.97942       89.71350
H         23.84080       -6.73142       87.75234
H         25.05711       -8.47993       89.64963
H         26.25802       -6.55394       87.81015
H         25.53517       -5.09136       88.56243
H         26.26768       -6.38613       89.59806
N         22.51292       -4.43360       88.55664
C         22.31018       -2.99512       88.33472
C         21.25931       -2.40587       89.28688
O         21.12369       -1.18842       89.31207
C         22.01246       -2.72354       86.81380
C         23.22636       -3.19929       85.95505
C         21.72546       -1.23321       86.51853
C         23.00585       -3.10909       84.44275
H         22.29157       -5.09428       87.79991
H         23.27035       -2.48079       88.56314
H         21.10918       -3.30475       86.52449
H         23.45168       -4.26417       86.16150
H         24.13185       -2.61107       86.22286
H         20.80776       -0.88532       87.02814
H         22.58752       -0.59967       86.81974
H         21.50957       -1.06284       85.44726
H         22.88789       -2.06226       84.10105
H         23.89353       -3.52230       83.91895
H         22.11326       -3.70104       84.14970
N         20.52947       -3.17012       90.14941
C         19.55916       -2.61554       91.08847
C         18.22222       -3.32385       90.94523
O         18.10966       -4.23570       90.13082
C         20.12381       -2.67234       92.53540
C         20.44786       -4.08675       93.03491
O         21.25710       -1.84565       92.64789
H         20.66835       -4.19028       90.17455
H         19.37111       -1.53988       90.87240
H         19.36254       -2.25180       93.22455
H         21.98340       -2.23733       92.09697
H         20.81509       -4.02983       94.08177
H         19.54056       -4.72457       93.01248
H         21.24104       -4.55798       92.41903
N         17.15391       -2.94835       91.70190
C         15.84084       -3.56984       91.60291
C         14.82203       -2.51579       91.18530
O         14.21602       -2.67245       90.13660
C         15.50333       -4.30309       92.92737
C         14.20687       -5.11407       92.82359
O         15.42086       -3.39783       93.99729
H         17.27310       -2.18131       92.38235
H         15.85151       -4.35849       90.81553
H         16.33667       -5.02157       93.11722
H         15.53666       -3.92344       94.83190
H         13.33864       -4.45485       92.62456
H         14.28840       -5.86253       92.00645
H         14.02854       -5.66117       93.77420
N         14.60044       -1.40448       91.95121
C         13.65899       -0.34632       91.59800
C         14.34116        1.00958       91.59384
O         15.03116        1.33330       92.55061
C         12.52968       -0.24626       92.63649
C         11.63425       -1.48877       92.70273
C         10.49655       -1.32357       93.72863
C          9.48856       -0.21692       93.35651
N          8.42501       -0.11983       94.35461
H         15.11442       -1.29714       92.83570
H         13.17900       -0.53062       90.61127
H         11.90684        0.62087       92.33453
H         12.95540       -0.04435       93.64449
H         12.25625       -2.35443       93.01139
H         11.20197       -1.70581       91.70129
H         10.93459       -1.11107       94.72834
H          9.94696       -2.28751       93.78885
H          9.04206       -0.44491       92.36306
H          9.98773        0.77189       93.29550
H          8.83191        0.13343       95.28452
H          7.75432        0.62938       94.06666
H          7.91101       -1.02720       94.42657
N         14.03488        1.92244       90.62737
C         14.42501        3.32452       90.73309
C         15.94081        3.50522       90.67329
O         16.48522        3.95978       91.67002
C         13.61581        4.18330       89.73411
C         13.94895        5.67762       89.83164
C         13.05660        6.47824       88.92716
O         13.53407        7.14388       88.02248
O         11.72286        6.47385       89.11792
H         13.39659        1.64005       89.86793
H         14.08982        3.68242       91.73537
H         12.53820        4.04125       89.97676
H         13.74733        3.83953       88.69352
H         15.01157        5.83636       89.54536
H         13.80474        6.03391       90.87420
N         16.72577        3.18311       89.60534
C         16.24772        2.65051       88.35069
H         15.62555        3.39715       87.82550
H         17.11212        2.44182       87.68555
H         15.69253        1.70501       88.51420
H         17.74425        3.32483       89.69485
Ca        28.87410        2.62555       87.07439
O         25.93331        2.27491       85.89019
H         25.94459        1.55153       85.21449
H         25.11758        2.10239       86.42405
O         27.83705       -0.42622       85.26740
H         28.28894       -0.41953       84.38650
H         27.48757       -1.34781       85.35849

Ca 1.0



