%chk=apoCaM-CA-Ng.loop1.water3.frame1328.chk
%nprocshared=20
%mem=10GB
%nosave
#b3lyp/svp scf=(tight,noincore,xqc) Test 
#IOP(5/87=12) Density=Current Pop=(MK,readradii) iop(6/33=2) iop(6/42=6)

apoCaM-CA-Ng.loop1.water3.frame1328 

   0  1 
C         32.38128       55.69635      108.44263
C         33.39562       55.05840      109.33984
O         34.31796       55.74037      109.76151
H         31.38275       55.65224      108.92203
H         32.64404       56.75980      108.25137
H         32.35363       55.16030      107.47058
N         33.31089       53.72910      109.63908
C         34.30349       53.03895      110.45947
C         35.18573       52.17730      109.58096
O         35.42491       51.01471      109.88058
C         33.63073       52.26177      111.61786
C         32.71014       51.13528      111.19502
O         32.08865       50.40622      112.14031
O         32.52930       50.85907      110.01893
H         32.54860       53.18517      109.21006
H         34.99053       53.78268      110.91510
H         33.04624       52.97872      112.23247
H         34.42466       51.82551      112.26239
N         35.70759       52.71560      108.44702
C         36.59549       51.98914      107.55788
C         37.94207       51.78752      108.23926
O         38.32592       50.63404      108.37187
C         36.64024       52.64455      106.15500
C         35.22677       52.58210      105.52819
C         35.14719       53.18300      104.12372
C         33.71247       53.04849      103.58128
N         33.58805       53.63491      102.24874
H         35.44109       53.67810      108.19380
H         36.16345       50.97884      107.36643
H         37.33786       52.06946      105.50790
H         36.99185       53.69409      106.19346
H         34.50342       53.12676      106.17250
H         34.90788       51.51702      105.47277
H         35.84966       52.64949      103.44744
H         35.42963       54.25708      104.16743
H         33.00205       53.55982      104.26962
H         33.43255       51.97163      103.53367
H         34.23323       53.15339      101.58163
H         32.60393       53.51454      101.91508
H         33.80932       54.65622      102.28567
N         38.70402       52.78397      108.78939
C         38.42535       54.22102      108.77787
C         38.01926       54.73442      110.14346
O         38.09902       54.01028      111.12595
C         39.62096       55.00368      108.19460
C         40.97726       54.46064      108.59267
O         41.45335       54.40917      109.85946
O         41.67470       53.99294      107.70665
H         39.54384       52.47840      109.30508
H         37.54859       54.44627      108.15222
H         39.54031       56.09207      108.40337
H         39.55755       54.88684      107.08905
N         37.43182       55.96589      110.23630
C         36.82343       56.45353      111.46144
C         37.83016       56.92358      112.46621
O         38.98858       57.09540      112.12883
H         37.29720       56.52325      109.37839
H         36.18693       55.65044      111.88804
H         36.16713       57.32325      111.24208
N         37.43803       57.13870      113.75245
C         38.33733       57.62391      114.79844
C         37.66167       58.76628      115.55265
O         36.47826       58.98276      115.33080
C         38.72408       56.42178      115.69057
C         39.37341       55.38901      114.80465
O         40.45366       55.74947      114.08442
O         38.85137       54.29989      114.62929
H         36.47182       56.88636      114.01288
H         39.25999       58.02654      114.33236
H         37.81344       55.99849      116.17072
H         39.43806       56.70688      116.48408
N         38.29594       59.59346      116.43387
C         39.69952       59.58705      116.80258
C         40.62010       59.88720      115.64085
O         40.37796       60.83332      114.90457
H         37.72208       60.32878      116.87770
H         39.97614       58.65135      117.32585
H         39.85171       60.40691      117.53808
N         41.76572       59.16884      115.49085
C         42.78186       59.46051      114.48374
C         42.32689       59.04441      113.09286
O         41.82261       57.94431      112.93809
C         44.11367       58.76586      114.86073
C         45.25579       59.14821      113.90930
O         43.96040       57.36904      114.87641
H         41.96423       58.43835      116.19179
H         43.01124       60.55019      114.50819
H         44.41852       59.13489      115.87108
H         43.92693       57.08026      115.82556
H         46.20040       58.66730      114.23968
H         45.04184       58.82377      112.86962
H         45.40494       60.24956      113.91135
N         42.56983       59.86058      112.02479
C         42.28009       59.56476      110.61961
C         42.99468       58.30704      110.14048
O         42.64946       57.22039      110.58018
C         40.75567       59.45470      110.33003
C         39.93639       60.63398      110.90836
C         40.48904       59.28290      108.81933
C         40.31735       62.01326      110.36711
H         43.03579       60.76202      112.21027
H         42.66511       60.42526      110.02934
H         40.37602       58.54457      110.82640
H         40.05329       60.64859      112.01287
H         38.85930       60.45533      110.69651
H         40.87786       60.14630      108.24052
H         40.98074       58.36685      108.43148
H         39.40062       59.17772      108.62743
H         40.16694       62.06957      109.27020
H         39.66980       62.77934      110.84226
H         41.37132       62.25737      110.61083
N         43.95787       58.37964      109.17933
C         44.57513       57.19788      108.58314
C         46.06743       57.11469      108.84780
O         46.66894       56.16907      108.35937
C         44.26640       57.14843      107.06208
C         44.88920       58.29850      106.26369
O         42.87903       57.17136      106.85650
H         44.23818       59.30767      108.83047
H         44.14296       56.27022      109.01959
H         44.68669       56.20577      106.63638
H         42.54363       56.26631      107.07606
H         45.99387       58.30119      106.37106
H         44.64651       58.17037      105.18715
H         44.48664       59.27937      106.58778
N         46.74019       58.03731      109.60209
C         48.18012       57.94645      109.84247
C         48.45749       56.66781      110.62968
O         48.20285       56.65802      111.82480
C         48.67010       59.21702      110.59538
C         50.19055       59.27138      110.74544
O         48.25469       60.36197      109.89128
H         46.22215       58.83086      110.00572
H         48.68059       57.91295      108.84857
H         48.20422       59.21330      111.61177
H         48.01816       61.05350      110.56516
H         50.67073       59.30930      109.74436
H         50.47161       60.19166      111.30305
H         50.56977       58.39211      111.30437
N         48.85358       55.51994      109.98983
C         48.93135       54.18983      110.60998
C         47.57271       53.73352      111.14237
O         46.92761       54.47361      111.86721
C         49.99396       54.09541      111.71402
C         51.41289       54.37799      111.19640
C         52.43276       54.12795      112.31832
C         53.88001       54.47799      111.93700
N         54.40790       53.63003      110.86684
H         49.05040       55.57045      108.97850
H         49.24228       53.45945      109.82820
H         49.97358       53.05022      112.09845
H         49.75179       54.77681      112.55545
H         51.47605       55.43291      110.85189
H         51.63278       53.70546      110.33878
H         52.38417       53.06265      112.63724
H         52.15576       54.76260      113.18740
H         54.51108       54.33761      112.84277
H         53.94169       55.54737      111.63856
H         55.41080       53.87983      110.70617
H         54.35530       52.62286      111.14401
H         53.88595       53.78596      109.97597
N         47.08912       52.48819      110.86756
C         45.76732       52.06017      111.32252
C         44.67828       52.86232      110.62881
O         43.89310       53.46799      111.34253
C         45.52265       50.54568      111.14795
C         46.37521       49.71998      112.12192
C         46.07977       48.25547      111.97593
O         46.30995       47.68378      110.92237
O         45.55935       47.56463      113.00865
H         47.68111       51.82873      110.34046
H         45.68138       52.24848      112.41885
H         45.69858       50.21744      110.10548
H         44.45737       50.33491      111.39603
H         46.13170       50.03050      113.16324
H         47.45708       49.89557      111.94735
N         44.51456       52.94586      109.27548
C         45.33824       52.32909      108.25667
H         46.18833       51.75716      108.65209
H         44.71214       51.64460      107.64714
H         45.74831       53.12124      107.59640
H         43.73518       53.51664      108.92777
Ca        40.95594       54.96855      112.00883
O         42.96317       53.74698      114.56626
H         43.41031       52.94085      114.20462
H         42.36009       53.40103      115.27143
O         40.52413       51.98433      112.56800
H         39.97469       52.23287      113.35277
H         40.02884       52.35171      111.79418
O         44.50787       56.00795      112.51071
H         44.65779       55.90649      111.53881
H         45.34808       56.41131      112.84164

Ca 1.0



