%chk=apoCaM-CA-Ng.loop3.water4.frame132.chk
%nprocshared=20
%mem=10GB
%nosave
#b3lyp/svp scf=(tight,noincore,xqc) Test 
#IOP(5/87=12) Density=Current Pop=(MK,readradii) iop(6/33=2) iop(6/42=6)

apoCaM-CA-Ng.loop3.water4.frame132 

   0  1 
C         69.86239       46.47294       10.62640
C         70.98192       45.47354       10.60909
O         71.24248       44.86888       11.63720
H         68.91470       45.96793       10.90770
H         70.08716       47.26673       11.36952
H         69.72842       46.95068        9.63280
N         71.69578       45.25276        9.46809
C         72.81313       44.32085        9.35570
C         73.96164       44.76498       10.25856
O         74.42009       44.00806       11.10360
C         72.32700       42.86951        9.58811
C         73.38210       41.84691        9.27375
O         73.85161       41.77284        8.14926
O         73.79300       40.98661       10.22475
H         71.44261       45.78298        8.62006
H         73.18423       44.37557        8.30740
H         71.45811       42.67026        8.92285
H         71.99474       42.73759       10.63638
N         74.47190       46.02271       10.10871
C         75.58954       46.57034       10.88768
C         75.26120       46.81016       12.36445
O         76.12926       47.28597       13.08395
C         76.03528       47.92557       10.29075
C         76.53450       47.80335        8.84055
C         77.13441       49.11364        8.30872
C         76.11949       50.26440        8.21262
N         76.75284       51.46276        7.66324
H         74.05273       46.60862        9.37109
H         76.45000       45.86835       10.82324
H         76.87791       48.32190       10.89922
H         75.18806       48.64250       10.35244
H         75.72011       47.47292        8.16238
H         77.33779       47.03561        8.81310
H         77.53590       48.91289        7.29194
H         77.98125       49.41807        8.96179
H         75.71353       50.50887        9.21725
H         75.27468       49.96040        7.55547
H         77.12453       51.26691        6.70545
H         76.04467       52.22938        7.60203
H         77.53344       51.77265        8.28712
N         74.03702       46.53368       12.88383
C         73.63002       46.83072       14.25215
C         74.57328       46.21322       15.28163
O         74.92338       45.04730       15.16873
C         72.18284       46.34921       14.42698
C         71.57197       46.73197       15.72862
O         70.46047       47.48463       15.75459
O         72.00081       46.26648       16.76915
H         73.32990       46.12026       12.26911
H         73.62326       47.93556       14.38418
H         72.13306       45.24275       14.31822
H         71.55963       46.80446       13.62641
N         75.00750       46.97269       16.32934
C         75.95262       46.54335       17.34949
C         75.53460       45.29550       18.09621
O         76.32486       44.36408       18.15515
H         74.65243       47.93712       16.41222
H         76.06016       47.36664       18.09031
H         76.94882       46.38093       16.88412
N         74.31200       45.19987       18.69194
C         73.88658       44.02637       19.45929
C         73.04770       43.05059       18.63318
O         72.58439       42.05894       19.17886
C         73.22476       44.45482       20.78897
C         71.85341       45.07626       20.65094
N         70.78871       44.52000       21.27557
O         71.70077       46.09712       19.99865
H         73.65484       45.97933       18.56474
H         74.78596       43.44593       19.76199
H         73.89782       45.17039       21.30980
H         73.14192       43.55476       21.43611
H         70.89016       43.66936       21.84811
H         69.85719       44.94843       21.19958
N         72.90114       43.21617       17.28858
C         72.24359       42.26962       16.40476
C         70.75261       42.21454       16.60086
O         70.19774       41.13064       16.70733
H         73.33931       44.02323       16.83107
H         72.70811       41.26271       16.48982
H         72.40327       42.61961       15.36109
N         70.03615       43.36874       16.60573
C         68.58588       43.44052       16.61301
C         68.07116       43.85394       18.01224
O         68.71458       44.92326       18.65963
C         68.10787       44.35956       15.45063
C         68.11729       43.66522       14.10207
C         69.29184       43.13119       13.54049
C         66.91111       43.54572       13.38618
C         69.24866       42.46805       12.30824
C         66.87439       42.89471       12.15167
C         68.04298       42.34535       11.61150
O         68.01798       41.69842       10.42862
H         70.55038       44.25831       16.58010
H         68.12587       42.43940       16.45945
H         68.72341       45.27626       15.38429
H         67.06655       44.68419       15.65617
H         70.24061       43.21320       14.04845
H         65.99102       43.95618       13.78304
H         70.15336       42.04452       11.89502
H         65.93443       42.81314       11.62047
H         67.20002       41.58242        9.92367
N         66.60188       43.94453       18.04449
C         66.04470       44.61733       19.23104
C         66.59852       44.00428       20.51433
O         67.28978       44.69728       21.24384
C         64.48406       44.57315       19.18977
C         63.88971       45.07789       17.84511
C         63.86713       45.33321       20.37702
C         64.13890       46.55475       17.53515
H         66.22204       42.97261       17.96445
H         66.35171       45.68311       19.18698
H         64.16703       43.51081       19.27256
H         62.78998       44.91228       17.85618
H         64.29902       44.47063       17.00896
H         64.16220       46.40218       20.36819
H         62.75941       45.25826       20.34476
H         64.20533       44.90493       21.33796
H         63.67011       47.20849       18.29846
H         65.22343       46.76490       17.47933
H         63.68248       46.80450       16.55383
N         66.34331       42.70758       20.84280
C         66.84677       42.06780       22.05720
C         66.36741       42.77799       23.31058
O         67.17526       43.00020       24.20069
C         66.41493       40.59733       22.10996
O         66.93725       39.91710       20.99908
H         65.76363       42.14855       20.19903
H         67.96087       42.07474       22.04652
H         65.30638       40.51380       22.11118
H         66.81439       40.15465       23.05375
H         67.09199       38.97838       21.28106
N         65.07484       43.20264       23.42561
C         64.52965       43.90671       24.58536
C         65.40647       45.07877       25.03297
O         65.53789       45.28994       26.23289
C         64.30490       42.90435       25.72878
H         64.43812       43.04707       22.63062
H         63.52897       44.30355       24.30419
H         63.81128       43.39954       26.59245
H         63.64775       42.07760       25.38515
H         65.27058       42.47192       26.06787
N         66.13581       45.80500       24.13476
C         67.15300       46.76662       24.55245
C         67.13085       48.03980       23.73252
O         66.39699       48.13128       22.75763
C         68.52854       46.10375       24.42984
H         66.06698       45.56714       23.13715
H         67.00176       47.04700       25.61798
H         69.33546       46.78420       24.77181
H         68.56057       45.19243       25.06398
H         68.72617       45.81126       23.37672
N         67.92198       49.08739       24.11202
C         68.01894       50.36567       23.41606
C         66.63689       50.94805       23.18337
O         66.28015       51.24106       22.04966
C         68.84224       50.23647       22.11375
C         70.27385       49.74429       22.38460
C         71.08200       49.70093       21.12012
O         72.18909       50.45886       21.00123
O         70.74741       48.97431       20.19914
H         68.46994       48.99254       24.98143
H         68.57556       51.07365       24.07047
H         68.90786       51.23998       21.63643
H         68.33296       49.55046       21.40987
H         70.25552       48.72774       22.83286
H         70.76890       50.43739       23.09957
N         65.79015       51.11073       24.23647
C         64.43866       51.61344       24.10102
H         63.72560       50.83681       24.44884
H         64.31989       52.52173       24.72605
H         64.18454       51.87180       23.05132
H         66.10760       50.84443       25.18071
Ca        69.12379       46.68582       17.33135
O         67.06775       48.41705       16.48485
H         66.53105       48.96629       17.10943
H         66.44071       48.16516       15.76188
O         72.58763       49.12441       17.72710
H         73.02665       49.43385       18.55819
H         72.84833       49.79254       17.04470
O         68.17698       47.49112       19.96389
H         68.79046       46.98646       20.55369
H         67.31441       47.49221       20.44689
O         69.37027       50.11663       17.67690
H         68.79789       50.74037       17.16351
H         70.12386       50.67550       17.99287

Ca 1.0



