%chk=apoCaM-CA-Ng.loop2.water3.frame375.chk
%nprocshared=20
%mem=10GB
%nosave
#b3lyp/svp scf=(tight,noincore,xqc) Test 
#IOP(5/87=12) Density=Current Pop=(MK,readradii) iop(6/33=2) iop(6/42=6)

apoCaM-CA-Ng.loop2.water3.frame375 

   -2  1 
C         21.91045       95.53607       23.53278
C         20.55034       95.10065       23.99358
O         19.57089       95.50035       23.38110
H         22.71340       95.10004       24.16294
H         22.06711       95.21530       22.48220
H         21.98172       96.64338       23.58989
N         20.41220       94.30377       25.09162
C         19.11715       93.89022       25.62521
C         18.85442       94.58013       26.94940
O         19.75423       95.20622       27.49220
C         19.03783       92.35246       25.72127
C         20.13669       91.75570       26.56483
O         20.24490       92.06903       27.86989
O         20.93621       90.97914       26.06602
H         21.25995       94.01444       25.59824
H         18.30542       94.23192       24.94739
H         19.11278       91.93808       24.69170
H         18.05534       92.04599       26.13899
N         17.59491       94.58146       27.48350
C         17.24621       95.35071       28.67919
C         17.52241       96.83602       28.47225
O         17.89731       97.22405       27.37332
C         15.77220       95.12996       29.03982
H         16.85608       94.05256       26.99519
H         17.87583       94.98829       29.52201
H         15.11656       95.48060       28.21374
H         15.58419       94.04872       29.21124
H         15.50316       95.67662       29.96739
N         17.40382       97.72665       29.49799
C         17.86900       99.10637       29.38741
C         16.74025      100.09526       29.53701
O         16.14272      100.17494       30.60293
C         18.95704       99.35819       30.45028
C         20.10911       98.42646       30.21904
O         20.42912       97.59591       31.05263
O         20.76999       98.51670       29.05586
H         17.05356       97.40108       30.41265
H         18.33078       99.28318       28.39024
H         18.53538       99.19980       31.46740
H         19.32557      100.40528       30.38036
N         16.40826      100.90935       28.49453
C         15.41142      101.95307       28.62487
C         15.14105      102.64487       27.30988
O         13.98864      102.66433       26.90036
H         16.89346      100.79215       27.59064
H         15.76854      102.70074       29.36525
H         14.45985      101.51239       28.99802
N         16.14326      103.23459       26.58862
C         15.88643      103.94625       25.33758
C         16.53592      103.27062       24.14784
O         17.38433      102.40288       24.30173
C         16.43439      105.38831       25.41215
C         15.84409      106.19159       26.53853
N         16.64133      106.72107       27.49680
O         14.63861      106.38554       26.57590
H         17.11321      103.17900       26.93598
H         14.79402      103.97930       25.13407
H         16.21882      105.92413       24.46222
H         17.54132      105.34271       25.52501
H         17.66222      106.57840       27.47643
H         16.23945      107.28525       28.25950
N         16.16836      103.67237       22.89974
C         16.81546      103.25352       21.67134
C         18.14685      103.95264       21.51067
O         18.63155      104.56222       22.45577
H         15.39538      104.35043       22.80939
H         16.18160      103.62390       20.83513
H         16.87956      102.14815       21.57899
N         18.73704      104.01279       20.28362
C         19.87044      104.90059       20.02876
C         21.20511      104.32596       20.50192
O         22.17046      105.07553       20.52558
C         19.90364      105.38071       18.54902
C         20.19023      104.27886       17.51921
O         18.70968      106.05477       18.22703
H         18.25066      103.55957       19.49610
H         19.69374      105.83265       20.61392
H         20.72482      106.12380       18.45095
H         17.99251      105.38059       18.09731
H         19.42450      103.47707       17.54413
H         20.20464      104.71788       16.49922
H         21.18155      103.83902       17.70476
N         21.34579      103.01778       20.87519
C         22.60329      102.42781       21.34246
C         22.40266      101.78998       22.70289
O         21.45458      101.03913       22.88889
C         23.13398      101.37897       20.32307
C         23.53475      102.03276       18.97511
C         24.32271      100.56753       20.88310
C         24.68252      103.05501       19.04648
H         20.53296      102.38870       20.80020
H         23.39122      103.19800       21.45565
H         22.31899      100.64919       20.11852
H         22.65196      102.53018       18.54626
H         23.83605      101.23140       18.26742
H         25.16164      101.22775       21.18445
H         24.01606       99.97900       21.77227
H         24.68064       99.83990       20.12515
H         24.89210      103.44342       18.02866
H         24.42775      103.92715       19.67978
H         25.61443      102.59133       19.42851
N         23.32154      102.01177       23.68721
C         23.24821      101.38973       25.00558
C         24.19388      102.06317       26.02180
O         24.48884      101.46430       27.04642
C         23.53783       99.85979       24.87916
C         23.13036       99.08990       26.10856
O         22.57330       99.66235       27.03284
O         23.31135       97.75782       26.20528
H         24.12181      102.61178       23.45193
H         22.21433      101.53823       25.38872
H         24.61642       99.70290       24.65793
H         22.95206       99.41699       24.04820
N         24.65906      103.33566       25.84725
C         25.54156      103.99687       26.79921
C         26.87392      103.25823       26.90318
O         27.52590      103.10618       25.87820
C         25.83902      105.43875       26.32257
C         26.74319      106.15056       27.29745
C         28.09844      106.35012       26.98466
C         26.24978      106.58880       28.53689
C         28.94939      106.96676       27.90440
C         27.10174      107.21977       29.44842
C         28.45145      107.40366       29.13447
H         24.35981      103.88577       25.03260
H         25.02359      104.05722       27.77873
H         24.90634      106.02785       26.18253
H         26.33185      105.37267       25.32634
H         28.50155      106.00559       26.04022
H         25.20765      106.44383       28.79384
H         29.99600      107.10072       27.66416
H         26.71716      107.56058       30.40067
H         29.11243      107.88234       29.84473
N         27.39704      102.84207       28.09824
C         28.75458      102.33793       28.22754
C         28.90099      100.88990       27.79812
O         30.03062      100.42587       27.72541
C         29.04887      102.52530       29.71965
C         27.69277      102.24184       30.33810
C         26.75785      102.99049       29.39017
H         29.46579      102.96181       27.64039
H         29.90045      101.93235       30.11667
H         29.25960      103.60468       29.90155
H         27.50255      101.14944       30.23409
H         27.57838      102.51877       31.40724
H         25.74546      102.53390       29.43198
H         26.70856      104.07155       29.63841
N         27.82178      100.09881       27.53879
C         27.95795       98.69702       27.16018
C         28.31915       98.53858       25.68979
O         28.54071       97.41028       25.27069
C         26.66101       97.92927       27.48843
C         26.40547       97.91755       29.00682
C         25.14668       97.18717       29.35943
O         25.01162       96.01025       29.06546
O         24.17094       97.82334       30.03557
H         26.87577      100.47922       27.68146
H         28.76764       98.23141       27.76730
H         26.75688       96.87499       27.14627
H         25.80881       98.39761       26.95169
H         26.32822       98.95592       29.39223
H         27.25597       97.41725       29.51862
N         28.39920       99.60223       24.83885
C         28.74793       99.44031       23.44429
H         29.76182       98.99490       23.35649
H         28.00749       98.78244       22.94162
H         28.74849      100.42821       22.93634
H         28.20471      100.55697       25.16949
Ca        22.22553       97.11991       28.06428
O         21.51538       94.82506       30.07640
H         21.16488       95.08672       30.96390
H         20.84965       94.17933       29.73117
O         20.25342       98.04938       25.97177
H         19.68430       97.39472       25.49742
H         19.93173       98.93284       25.66322
O         23.38146       94.47389       27.08475
H         23.68511       93.78701       26.44001
H         22.64430       94.03968       27.58334

Ca 1.0



