%chk=apoCaM-CA-Ng.loop1.water0.frame823.chk
%nprocshared=20
%mem=10GB
%nosave
#b3lyp/svp scf=(tight,noincore,xqc) Test 
#IOP(5/87=12) Density=Current Pop=(MK,readradii) iop(6/33=2) iop(6/42=6)

apoCaM-CA-Ng.loop1.water0.frame823 

   0  1 
C         25.86481       78.87699       67.50973
C         26.54704       77.59643       67.13407
O         25.96731       76.53310       67.30010
H         24.85217       78.68047       67.91909
H         26.46955       79.40953       68.27322
H         25.76914       79.52177       66.60981
N         27.79393       77.63956       66.59472
C         28.53738       76.45509       66.16838
C         29.88156       76.35393       66.88975
O         30.32943       77.32856       67.47894
C         28.64191       76.42229       64.62602
C         29.24111       77.64943       63.99560
O         29.72968       78.64796       64.74834
O         29.35338       77.70848       62.78128
H         28.21507       78.57071       66.47555
H         27.97152       75.54282       66.45479
H         27.61456       76.32213       64.21534
H         29.22850       75.53167       64.31089
N         30.51088       75.14439       66.99523
C         31.67893       74.93194       67.85387
C         32.98661       75.49101       67.30183
O         33.92998       75.55649       68.08014
C         31.89383       73.41972       68.13681
C         30.83692       72.81846       69.08020
C         31.12132       71.32236       69.32232
C         30.23249       70.68370       70.40566
N         30.52046       71.21517       71.74149
H         30.05775       74.32512       66.56117
H         31.49132       75.43172       68.83161
H         32.86998       73.27898       68.65329
H         31.93607       72.86263       67.17418
H         29.81145       72.93728       68.66849
H         30.90314       73.37655       70.03626
H         32.18175       71.17329       69.62241
H         30.95835       70.78183       68.36392
H         30.44344       69.59064       70.41632
H         29.15652       70.82084       70.16105
H         29.96712       70.68036       72.44921
H         31.53703       71.10205       71.96316
H         30.25203       72.22125       71.81242
N         33.18508       75.79111       65.98389
C         34.53022       76.08794       65.48334
C         35.06621       77.44144       65.93210
O         34.32147       78.40456       65.89276
C         34.67099       75.90379       63.95514
C         34.11879       76.90590       62.96564
O         33.35715       77.97432       63.26141
O         34.41429       76.74511       61.79314
H         32.41248       75.66021       65.31416
H         35.19413       75.28529       65.87493
H         34.29147       74.89449       63.68346
H         35.76500       75.90657       63.75823
N         36.36531       77.66342       66.28152
C         37.41528       76.66886       66.40265
C         37.27161       75.90452       67.68802
O         37.00238       76.53188       68.70367
H         36.64321       78.64018       66.46860
H         38.37442       77.22080       66.50880
H         37.51174       76.03402       65.49553
N         37.53532       74.56872       67.75134
C         37.46704       73.82401       69.00528
C         38.87316       73.51290       69.50277
O         39.83291       73.70392       68.76700
C         36.58819       72.57460       68.79049
C         36.30931       71.81170       70.05245
O         36.65261       70.64491       70.15497
O         35.65698       72.40668       71.06969
H         37.85287       74.07905       66.89948
H         36.99834       74.45880       69.78773
H         37.07729       71.91056       68.04277
H         35.60778       72.89407       68.37478
N         39.07487       73.09815       70.78679
C         40.39578       72.84823       71.34308
C         41.25435       74.09553       71.51196
O         42.38955       73.94221       71.94050
H         38.26389       72.95364       71.40503
H         40.91776       72.10040       70.71046
H         40.27713       72.40998       72.35946
N         40.77672       75.35528       71.28069
C         41.53670       76.57590       71.56391
C         41.49744       77.55266       70.39216
O         40.82719       77.27104       69.40664
C         40.96128       77.22978       72.85061
C         39.46457       77.56333       72.74365
O         41.13632       76.36159       73.94022
H         39.79953       75.46919       70.97987
H         42.60597       76.33760       71.75759
H         41.49754       78.18249       73.06099
H         42.09786       76.39645       74.18560
H         38.85404       76.64393       72.62938
H         39.12839       78.07257       73.67065
H         39.25771       78.22582       71.88083
N         42.17317       78.74684       70.45166
C         42.04723       79.78866       69.42800
C         43.37716       80.06782       68.71947
O         43.34406       80.72135       67.68771
C         41.45564       81.10171       70.06021
C         40.25001       80.78525       70.98666
C         41.04014       82.12193       68.97562
C         39.69110       81.99751       71.73684
H         42.74843       78.95178       71.28316
H         41.33967       79.43142       68.64829
H         42.24271       81.55835       70.70172
H         40.59243       80.09241       71.77950
H         39.43474       80.29785       70.40972
H         40.24426       81.69342       68.32873
H         40.66529       83.06154       69.42498
H         41.88932       82.43521       68.34339
H         38.90123       81.65922       72.44053
H         40.49523       82.49163       72.32333
H         39.22720       82.73097       71.04887
N         44.58211       79.61824       69.19119
C         45.84747       79.88851       68.50369
C         46.75808       80.75836       69.35546
O         46.46927       81.00914       70.51705
C         46.52161       78.54979       68.11493
C         45.66144       77.78705       67.10550
O         47.78224       78.77353       67.53704
H         44.62562       79.07655       70.06493
H         45.66813       80.47577       67.57641
H         46.63640       77.94573       69.04710
H         48.35236       77.99296       67.76467
H         45.54822       78.38908       66.17714
H         46.15153       76.82598       66.84569
H         44.65536       77.57139       67.52046
N         47.85582       81.32193       68.77355
C         48.76118       82.24666       69.43314
C         48.56459       83.60785       68.80107
O         48.17371       84.52221       69.51507
C         50.21883       81.71681       69.35137
C         51.24141       82.69786       69.93430
O         50.57248       81.42994       68.02125
H         48.02326       81.14358       67.77311
H         48.50667       82.34522       70.51329
H         50.24579       80.78004       69.95934
H         51.08202       80.57754       68.02514
H         51.26427       83.63789       69.34126
H         50.99833       82.93783       70.99006
H         52.25556       82.24505       69.89638
N         48.79876       83.82046       67.47274
C         48.58580       85.11364       66.83762
C         47.68380       85.00210       65.61818
O         47.36944       83.90222       65.18248
C         49.95101       85.76453       66.53507
C         50.83569       85.00161       65.52405
C         52.22081       85.66736       65.36877
C         53.16114       85.49423       66.58464
N         53.66510       84.12263       66.70369
H         49.15748       83.04899       66.89334
H         48.06680       85.79532       67.54620
H         50.47437       85.84370       67.50858
H         49.79208       86.79735       66.15535
H         50.31873       85.02954       64.54069
H         50.96519       83.93781       65.80302
H         52.05908       86.75110       65.18156
H         52.74033       85.25132       64.47888
H         52.66914       85.80421       67.52933
H         54.03636       86.16559       66.44364
H         52.88873       83.43483       66.81795
H         54.22931       83.88088       65.85590
H         54.28910       84.05886       67.54050
N         47.21205       86.13719       65.03095
C         46.37580       86.15789       63.83482
C         45.08924       85.34099       64.00058
O         44.90685       84.43128       63.20367
C         46.13571       87.62210       63.39564
C         45.34696       87.74745       62.08549
C         45.26027       89.18685       61.65987
O         46.27711       89.81791       61.41578
O         44.06117       89.78685       61.53756
H         47.48008       87.03965       65.45385
H         46.95979       85.68943       63.00941
H         47.13624       88.08581       63.24693
H         45.62575       88.20483       64.18411
H         44.32196       87.34141       62.22667
H         45.85145       87.17079       61.28101
N         44.14959       85.53472       64.97289
C         44.21830       86.52559       66.02238
H         43.33741       86.41433       66.69115
H         45.13146       86.37963       66.63349
H         44.17621       87.54665       65.60598
H         43.32994       84.90625       64.98212
Ca        31.90659       78.42093       64.88101

Ca 1.0



