%chk=apoCaM-CA-Ng.loop3.water6.frame16.chk
%nprocshared=20
%mem=10GB
%nosave
#b3lyp/svp scf=(tight,noincore,xqc) Test 
#IOP(5/87=12) Density=Current Pop=(MK,readradii) iop(6/33=2) iop(6/42=6)

apoCaM-CA-Ng.loop3.water6.frame16 

   0  1 
C         82.15784       53.89985       87.53065
C         83.15367       55.01547       87.42342
O         84.27887       54.76550       87.01940
H         81.28282       54.11564       86.88279
H         82.61037       52.93641       87.20981
H         81.82115       53.80093       88.58355
N         82.79637       56.28761       87.76936
C         83.68476       57.44948       87.69829
C         84.83259       57.39381       88.70935
O         85.68485       58.27089       88.66102
C         84.20286       57.66704       86.25566
C         83.06923       57.77815       85.27302
O         82.98210       56.99065       84.34430
O         82.14633       58.74957       85.41012
H         81.82719       56.45172       88.08232
H         83.09395       58.35507       87.96290
H         84.88148       56.84397       85.95083
H         84.78971       58.60955       86.21085
N         84.89589       56.44152       89.68783
C         85.96742       56.35406       90.68016
C         86.68029       55.00268       90.62503
O         87.55822       54.77129       91.44422
C         85.37807       56.56639       92.08941
C         84.80925       57.98426       92.27282
C         84.20291       58.22134       93.66768
C         85.22073       58.07511       94.81359
N         84.60673       58.39139       96.10242
H         84.13569       55.75072       89.76937
H         86.74242       57.13418       90.51118
H         86.19497       56.42244       92.82518
H         84.58608       55.80923       92.28344
H         84.00754       58.15728       91.52266
H         85.61542       58.72982       92.09557
H         83.35768       57.51760       93.82902
H         83.79959       59.25757       93.68540
H         86.07859       58.76193       94.63957
H         85.60448       57.03398       94.85624
H         84.27554       59.38327       96.10956
H         83.80289       57.74776       96.28579
H         85.31799       58.26715       96.85901
N         86.36441       54.06410       89.68729
C         86.97414       52.74070       89.61264
C         88.47856       52.87625       89.41706
O         88.88704       53.53497       88.47314
C         86.29003       51.96297       88.46243
C         86.63117       50.50785       88.42871
O         85.66436       49.58729       88.60119
O         87.77026       50.14708       88.21334
H         85.64646       54.28836       88.99168
H         86.75510       52.20260       90.56171
H         86.52847       52.43125       87.48211
H         85.18936       52.02727       88.61207
N         89.35888       52.32573       90.30804
C         90.80130       52.55630       90.26704
C         91.52058       52.04739       89.03092
O         92.69611       52.35230       88.88746
H         88.98645       51.78264       91.10059
H         91.27969       52.08802       91.15504
H         90.96773       53.65259       90.33143
N         90.90444       51.27611       88.09517
C         91.54746       50.84681       86.85475
C         91.71858       52.00503       85.85797
O         92.27923       51.77912       84.79691
C         90.75063       49.67301       86.24901
C         90.71853       48.49357       87.23757
N         92.04940       47.94432       87.49705
O         89.84204       47.49399       86.82004
H         89.95042       50.95959       88.28228
H         92.56061       50.45144       87.08970
H         91.21598       49.32709       85.30399
H         89.71112       50.00328       86.03083
H         92.54627       47.75133       86.60080
H         91.95743       47.04406       88.01997
N         91.31137       53.27718       86.15047
C         91.56249       54.45128       85.32779
C         90.79599       54.45824       84.03052
O         89.58574       54.31492       84.07712
H         90.84879       53.46744       87.04317
H         92.65467       54.56885       85.16436
H         91.21353       55.34210       85.89417
N         91.44138       54.72380       82.85170
C         90.84436       54.80103       81.51361
C         90.54464       53.41539       80.98145
O         91.18635       53.03135       80.01746
C         89.66003       55.78754       81.41852
C         90.06835       57.19286       81.80767
C         91.06721       57.87223       81.08434
C         89.44982       57.84393       82.88866
C         91.44410       59.16985       81.44066
C         89.82718       59.14478       83.24139
C         90.82741       59.81117       82.51823
O         91.20166       61.06450       82.84626
H         92.45262       54.92053       82.90196
H         91.63676       55.19268       80.83656
H         88.81489       55.43527       82.04409
H         89.29410       55.81487       80.36902
H         91.55665       57.40233       80.24126
H         88.67544       57.34738       83.45946
H         92.21601       59.67811       80.87582
H         89.34148       59.63406       84.07614
H         90.79935       61.54693       83.58243
N         89.63744       52.59444       81.57966
C         89.49843       51.16280       81.33982
C         90.74613       50.46638       81.86715
O         90.64268       49.85252       82.91885
C         89.06985       50.79593       79.89217
C         87.83093       51.61255       79.42918
C         88.80295       49.28353       79.77378
C         86.59912       51.50905       80.33866
H         89.04617       52.97072       82.32593
H         88.67318       50.82200       82.00636
H         89.89098       51.03450       79.18360
H         87.54682       51.28443       78.40542
H         88.10856       52.68658       79.36419
H         87.99776       48.95817       80.46447
H         88.50769       49.02491       78.73443
H         89.71705       48.70482       80.01846
H         86.25307       50.46108       80.43929
H         86.81211       51.92504       81.34521
H         85.77143       52.10841       79.90535
N         91.95874       50.53539       81.23962
C         93.18367       50.03919       81.85352
C         93.58020       48.68845       81.31406
O         94.50512       48.11276       81.87098
C         94.32266       51.05961       81.67914
O         93.95636       52.31129       82.19509
H         92.03354       50.93850       80.29872
H         93.02079       49.89133       82.94408
H         94.55822       51.18380       80.60016
H         95.25874       50.69776       82.16694
H         94.20039       52.30880       83.15645
N         92.90078       48.07909       80.29202
C         93.16590       46.71105       79.86447
C         92.88642       45.72834       81.00299
O         93.38226       44.61187       80.95997
C         94.60002       46.58885       79.31467
H         92.13222       48.57275       79.81740
H         92.48566       46.45308       79.02335
H         94.76880       45.57147       78.90489
H         94.75063       47.32218       78.49340
H         95.37048       46.76996       80.09023
N         92.09518       46.09085       82.06095
C         91.91003       45.28793       83.26075
C         90.45067       44.94268       83.48105
O         89.60959       45.83076       83.47959
C         92.41293       46.08971       84.45499
H         91.62810       47.00957       82.05356
H         92.51270       44.35502       83.21621
H         91.83697       47.03527       84.54174
H         92.29296       45.50048       85.38967
H         93.48770       46.33661       84.32393
N         90.09673       43.64931       83.72768
C         88.73891       43.18486       83.98290
C         87.86725       43.42327       82.76759
O         86.84031       44.08307       82.86544
C         88.12652       43.78359       85.27210
C         88.99336       43.54588       86.51523
C         88.22118       43.88393       87.75684
O         88.03268       42.95183       88.71008
O         87.73238       44.99010       87.89550
H         90.83801       42.93262       83.74245
H         88.78343       42.08337       84.13963
H         87.14280       43.28505       85.42480
H         87.94315       44.87599       85.16752
H         89.91003       44.17318       86.45462
H         89.29419       42.47889       86.57737
N         88.23700       42.89466       81.56971
C         87.47154       43.06194       80.35268
H         86.54724       43.65642       80.51119
H         88.09723       43.58011       79.59704
H         87.18329       42.06363       79.96340
H         89.10831       42.34559       81.51276
Ca        88.37344       47.49566       88.56947
O         85.04264       46.67183       89.03084
H         84.43398       47.24563       89.56086
H         84.69709       45.75391       89.16486
O         87.23455       45.53325       91.23055
H         87.30991       44.97084       92.04164
H         87.03243       44.89163       90.50498
O         90.20696       45.86015       90.15019
H         90.74389       45.69554       90.96489
H         90.72960       45.45006       89.41642
O         86.55123       48.73886       91.49596
H         86.01193       48.08629       92.00914
H         86.04119       49.58547       91.55540
O         89.90898       48.96787       90.77243
H         89.17736       49.40587       91.27417
H         90.43445       48.49686       91.46642
O         86.76213       47.81995       85.98152
H         87.60260       47.95853       85.47730
H         86.19016       48.58494       85.72184

Ca 1.0



