%chk=apoCaM-CA-Ng.loop4.water5.frame772.chk
%nprocshared=20
%mem=10GB
%nosave
#b3lyp/svp scf=(tight,noincore,xqc) Test 
#IOP(5/87=12) Density=Current Pop=(MK,readradii) iop(6/33=2) iop(6/42=6)

apoCaM-CA-Ng.loop4.water5.frame772 

   -3  1 
C         92.29735       86.81266       22.07450
C         93.59532       86.64053       22.80677
O         94.05741       85.51939       22.94329
H         91.54854       87.28526       22.74417
H         92.45487       87.46020       21.18616
H         91.90211       85.83140       21.73332
N         94.25315       87.73016       23.29410
C         95.52774       87.67914       24.01064
C         96.60228       87.05218       23.13428
O         97.30450       86.14662       23.56443
C         95.35950       86.96876       25.37586
C         94.34755       87.65124       26.25946
O         93.88359       88.88986       25.97991
O         93.90126       87.05100       27.22430
H         93.83725       88.66050       23.13263
H         95.85116       88.72477       24.20874
H         96.31967       86.89612       25.92898
H         95.00619       85.93246       25.18657
N         96.75753       87.49459       21.85566
C         97.77779       86.98638       20.94320
C         99.14284       87.51592       21.36858
O         99.23502       88.71665       21.58293
C         97.45828       87.36680       19.45227
C         97.43896       88.89259       19.15728
C         96.14386       86.68403       19.02133
C         97.31550       89.21306       17.66593
H         96.09558       88.20652       21.51689
H         97.75759       85.87815       20.98615
H         98.26647       86.94126       18.82321
H         98.40068       89.34224       19.46747
H         96.61926       89.39982       19.70601
H         96.21699       85.58982       19.18299
H         95.27755       87.07399       19.59636
H         95.94387       86.82129       17.94139
H         97.38301       90.31117       17.51918
H         98.14487       88.73229       17.10312
H         96.34503       88.87795       17.25099
N        100.26631       86.75645       21.54017
C        100.41905       85.31500       21.34270
C        101.84231       84.93588       21.73709
O        102.78140       85.42274       21.12070
C        100.18597       84.88450       19.87253
C        100.36513       83.40218       19.68745
O        101.21725       82.97692       18.92411
O         99.57338       82.53801       20.35119
H        101.10158       87.27575       21.85848
H         99.69260       84.78708       21.99968
H        100.88658       85.43729       19.20850
H         99.16236       85.10132       19.54066
N        102.06678       84.07551       22.76366
C        103.39452       83.68191       23.21361
C        103.56949       82.19885       23.03687
O        104.49989       81.77385       22.36649
H        101.25103       83.68426       23.25682
H        103.49527       83.93916       24.28914
H        104.19817       84.21572       22.66058
N        102.66759       81.35077       23.59811
C        102.69746       79.90291       23.45703
C        102.80944       79.46454       22.00806
O        103.64388       78.61353       21.72808
C        101.48007       79.25456       24.16869
C        100.11754       79.64237       23.63513
O         99.72326       80.92938       23.60772
O         99.33178       78.77729       23.28358
H        101.90885       81.76665       24.15400
H        103.60020       79.51901       23.98409
H        101.51528       79.54572       25.23969
H        101.58802       78.14768       24.11884
N        102.04210       80.01241       21.02129
C        102.11825       79.52894       19.65138
C        101.51384       78.14443       19.52309
O        101.68141       77.52466       18.48304
H        101.39901       80.78610       21.24093
H        103.18336       79.52957       19.32853
H        101.55803       80.20090       18.96676
N        100.73635       77.62664       20.52333
C        100.08130       76.32841       20.49691
C         99.06716       76.22410       19.36530
O         98.68153       75.12239       19.00275
C        101.13633       75.20529       20.60307
C        101.84054       75.31889       21.97679
C        102.93243       74.30749       22.17558
N        104.05477       74.35106       21.42267
O        102.82260       73.46405       23.05311
H        100.56102       78.18876       21.35654
H         99.45377       76.23184       21.41101
H        101.86443       75.27634       19.76792
H        100.64149       74.21104       20.55432
H        101.07182       75.18500       22.77141
H        102.29132       76.32412       22.11120
H        104.17551       75.07612       20.70065
H        104.81571       73.67420       21.58051
N         98.51152       77.35910       18.84381
C         97.44354       77.38897       17.84979
C         96.26243       78.26674       18.30068
O         95.33152       78.40677       17.51767
C         98.01274       77.93130       16.50118
C         98.63004       79.33896       16.62976
C         99.04963       76.96419       15.91290
H         98.86294       78.27034       19.16429
H         97.04875       76.36584       17.66351
H         97.17830       77.99021       15.76759
H         98.96716       79.70093       15.63580
H         97.88611       80.06230       17.02097
H         99.51469       79.33683       17.30065
H         98.59271       75.96405       15.75676
H         99.40563       77.33694       14.92859
H         99.92530       76.85565       16.58496
N         96.25902       78.95338       19.48708
C         95.31441       80.02996       19.78923
C         94.64365       79.85133       21.15897
O         94.95185       78.90326       21.86869
C         96.16402       81.32917       19.72738
C         95.40462       82.62101       19.84595
N         95.66559       83.48135       20.85725
O         94.54926       82.89828       19.01796
H         97.03285       78.83010       20.15470
H         94.52003       80.08751       19.01279
H         96.68337       81.36404       18.74509
H         96.94636       81.27431       20.51612
H         96.38437       83.26867       21.56446
H         95.14393       84.36495       20.93492
N         93.74730       80.78228       21.60563
C         93.18951       80.84773       22.95311
C         91.69050       81.09518       22.89229
O         91.27390       81.99277       22.17068
C         93.87247       82.02988       23.67443
C         93.38261       82.25023       25.08952
C         92.81340       83.48251       25.45510
C         93.50508       81.24153       26.06088
C         92.38018       83.70328       26.76427
C         93.06103       81.46200       27.36921
C         92.49965       82.69248       27.72598
O         92.08274       82.89372       28.99235
H         93.50706       81.56545       20.98601
H         93.41600       79.92702       23.53313
H         93.71699       82.95113       23.07302
H         94.96740       81.83977       23.71190
H         92.70843       84.27858       24.73217
H         93.94465       80.28525       25.80934
H         91.95406       84.66130       27.03110
H         93.15850       80.67685       28.10819
H         91.69238       83.73249       29.27777
N         90.82870       80.40249       23.69288
C         89.39095       80.66197       23.71861
C         89.01543       81.27269       25.05868
O         89.17787       80.59342       26.06362
C         88.60090       79.35610       23.51666
C         88.91913       78.67286       22.18413
C         88.14045       77.39506       22.05716
O         88.31613       76.40469       22.95400
O         87.34915       77.24487       21.14050
H         91.21136       79.70383       24.34912
H         89.11488       81.35092       22.90190
H         87.51177       79.58399       23.55628
H         88.84179       78.65411       24.34685
H         90.00156       78.42904       22.12836
H         88.66456       79.36079       21.34851
N         88.54361       82.54662       25.20828
C         88.38498       83.52925       24.13727
C         87.21938       83.21176       23.22983
O         86.10030       83.08067       23.70662
C         88.20462       84.95216       24.71410
C         89.47812       85.35565       25.46234
C         89.57245       86.78999       25.86157
O         90.77120       87.17829       26.31637
O         88.68235       87.59842       25.65105
H         88.35821       82.85667       26.17541
H         89.32206       83.56676       23.53762
H         87.31461       85.02369       25.37741
H         88.06977       85.65446       23.86034
H         90.33557       85.19507       24.77201
H         89.62813       84.72559       26.36165
N         87.41091       83.13713       21.88335
C         86.32533       82.91067       20.95727
H         85.56912       83.71872       21.05840
H         86.71224       82.92197       19.91561
H         85.85367       81.92664       21.15662
H         88.35604       83.27695       21.49398
Ca        91.70597       89.19618       26.40603
O         90.50075       90.36005       29.51895
H         89.86916       91.12079       29.46855
H         90.68387       90.25306       30.48614
O         88.74459       90.72944       26.79262
H         88.83816       91.66406       26.48028
H         89.09655       90.18575       26.04463
O         90.77240       87.18970       29.14507
H         91.35784       86.85517       29.86944
H         89.86997       87.23448       29.54972
O         92.99961       91.89273       27.60969
H         93.89670       91.72397       27.99332
H         92.44938       92.17850       28.38166
O         93.43834       89.14447       29.53209
H         94.38349       88.99817       29.27612
H         93.48207       89.78340       30.28714

Ca 1.0



