%chk=apoCaM-CA-Ng.loop2.water4.frame1074.chk
%nprocshared=20
%mem=10GB
%nosave
#b3lyp/svp scf=(tight,noincore,xqc) Test 
#IOP(5/87=12) Density=Current Pop=(MK,readradii) iop(6/33=2) iop(6/42=6)

apoCaM-CA-Ng.loop2.water4.frame1074 

   -2  1 
C         38.17564       52.31023       27.43757
C         37.02554       53.27974       27.34858
O         36.47615       53.42329       26.26604
H         39.09885       52.83994       27.75052
H         37.95478       51.49267       28.14808
H         38.36849       51.84539       26.44722
N         36.58984       54.01632       28.41288
C         37.16260       53.95966       29.75520
C         37.06298       55.33061       30.42633
O         37.45563       56.29507       29.78373
C         36.57322       52.75436       30.53307
C         35.06142       52.73531       30.57711
O         34.45156       51.81912       30.04848
O         34.36925       53.70064       31.20750
H         35.82665       54.68601       28.24118
H         38.25953       53.81327       29.66802
H         36.99357       52.70635       31.55843
H         36.89467       51.82419       30.02771
N         36.59608       55.51084       31.70206
C         36.49988       56.80987       32.36166
C         35.59311       57.71793       31.56267
O         36.01920       58.77311       31.11044
C         37.89265       57.41819       32.59345
H         36.28913       54.70361       32.25699
H         36.04519       56.66361       33.36742
H         37.79732       58.36399       33.16965
H         38.51968       56.71444       33.17953
H         38.40884       57.64575       31.63865
N         34.30586       57.34492       31.33709
C         33.42351       58.10399       30.46714
C         31.97299       57.67793       30.62947
O         31.66468       56.49429       30.60981
C         33.85496       57.97807       28.98466
C         33.81781       56.57670       28.44732
O         33.86575       56.39766       27.24042
O         33.62365       55.52211       29.25878
H         33.95901       56.47734       31.77588
H         33.48196       59.18117       30.73522
H         34.86712       58.39435       28.80686
H         33.13504       58.58424       28.38981
N         31.00552       58.62625       30.73199
C         29.59314       58.31119       30.79712
C         29.02557       57.67863       29.53085
O         27.82539       57.44365       29.54122
H         31.27385       59.62145       30.76178
H         29.03412       59.25660       30.96903
H         29.40462       57.64645       31.66954
N         29.77605       57.35103       28.42395
C         29.18683       56.72791       27.23988
C         29.51034       55.21182       27.23423
O         30.76634       54.91277       26.70403
C         29.67056       57.39389       25.93871
C         29.39843       58.87206       25.85786
N         30.40938       59.74434       25.62442
O         28.25452       59.28486       25.96952
H         30.79206       57.49913       28.41699
H         28.08212       56.83177       27.29324
H         29.14666       56.89674       25.10390
H         30.76311       57.22355       25.81651
H         31.37960       59.41515       25.50643
H         30.22260       60.75417       25.53973
N         28.49976       54.37011       26.58985
C         28.73525       52.98704       27.05006
C         27.45666       52.19314       27.14472
O         26.53672       52.67080       27.79392
H         27.57173       54.69875       26.94028
H         29.13405       52.98584       28.09028
H         29.50335       52.50916       26.40960
N         27.30592       50.94000       26.63660
C         28.32678       50.17698       25.92424
C         28.48808       50.70348       24.51232
O         27.47869       50.94033       23.86237
C         27.90983       48.68555       25.88876
C         28.98134       47.80025       25.24158
O         27.70967       48.24578       27.20951
H         26.40908       50.47072       26.84243
H         29.28705       50.20573       26.48727
H         26.95958       48.59777       25.30853
H         27.00667       47.54563       27.18312
H         29.15560       48.08939       24.18485
H         29.93711       47.88186       25.80337
H         28.65013       46.74077       25.26001
N         29.72338       50.80591       23.93689
C         29.91545       51.20643       22.54555
C         30.31748       49.97265       21.74920
O         31.39938       49.45778       21.99802
C         30.98412       52.33170       22.44109
C         30.68403       53.52752       23.37792
C         31.16497       52.80294       20.98507
C         29.29071       54.12709       23.20323
H         30.55069       50.51446       24.48050
H         28.97028       51.60902       22.13963
H         31.96734       51.92463       22.76907
H         31.45008       54.31540       23.20620
H         30.78132       53.20418       24.43554
H         30.22848       53.22959       20.57320
H         31.96158       53.57524       20.92912
H         31.47939       51.95784       20.33710
H         28.50435       53.40821       23.50345
H         29.18945       55.01938       23.84666
H         29.11921       54.41316       22.15559
N         29.50487       49.37010       20.82663
C         28.13851       49.79410       20.51241
C         28.07926       51.04990       19.64394
O         29.06215       51.40474       19.01191
C         27.31628       48.64975       19.86391
C         27.82525       48.17250       18.52338
O         27.11927       48.27594       17.53352
O         29.02690       47.57477       18.41047
H         29.85374       48.48784       20.42876
H         27.62486       49.99367       21.47471
H         26.26824       49.00210       19.74007
H         27.29039       47.78051       20.55654
N         26.91173       51.75975       19.57250
C         26.68703       52.91022       18.68905
C         25.30856       53.51791       18.98590
O         24.35928       52.74653       18.99911
C         26.67315       52.42757       17.21292
C         26.47407       53.57826       16.25242
C         25.23305       53.77610       15.61970
C         27.52517       54.47492       15.99543
C         25.04481       54.86277       14.75961
C         27.33555       55.55337       15.12481
C         26.09515       55.75001       14.51172
H         26.13770       51.44686       20.17757
H         27.48934       53.66211       18.83438
H         25.84165       51.69517       17.10321
H         27.60294       51.89005       16.93143
H         24.40480       53.10437       15.80803
H         28.48885       54.33788       16.46958
H         24.08281       55.02001       14.28833
H         28.14878       56.24018       14.92958
H         25.94725       56.59032       13.84538
N         25.06792       54.86502       19.15362
C         26.02361       55.95654       18.97199
C         27.04712       56.11882       20.07532
O         27.03940       55.34162       21.01992
C         25.13851       57.20865       18.89393
C         23.83671       56.65436       18.35410
C         23.71773       55.39347       19.19438
H         26.51782       55.81842       17.99276
H         24.90027       57.55284       19.91902
H         25.58080       58.05801       18.33112
H         22.97254       57.34611       18.44496
H         23.97665       56.36981       17.28680
H         23.47853       55.66906       20.24723
H         22.93402       54.70782       18.80816
N         27.97392       57.12349       20.00372
C         29.03269       57.29567       20.99335
C         30.19651       58.13477       20.45236
O         30.59433       59.09385       21.09624
C         28.46268       57.82819       22.34538
C         27.90872       59.27599       22.34680
C         26.70103       59.46805       21.48681
O         26.73394       60.23736       20.53883
O         25.55322       58.84406       21.80325
H         27.97394       57.73094       19.16925
H         29.48871       56.30410       21.17045
H         29.29886       57.80928       23.07106
H         27.67705       57.14118       22.72722
H         28.68792       59.99885       22.04387
H         27.61957       59.55092       23.38231
N         30.85096       57.84227       19.29035
C         30.56323       56.73304       18.40342
H         30.25955       57.13513       17.41373
H         31.47929       56.12162       18.27622
H         29.76995       56.05961       18.77160
H         31.62258       58.46488       19.00426
Ca        31.99364       54.27144       28.46650
O         29.29343       54.34905       30.54173
H         29.21238       55.00214       31.28128
H         28.44232       53.84372       30.56209
O         31.55964       53.52693       32.47984
H         31.18674       53.90538       33.31538
H         31.98476       52.67741       32.75918
O         32.87591       51.84783       26.99432
H         32.98560       52.69483       26.49289
H         31.97975       51.51906       26.73141
O         30.62762       51.43599       29.82565
H         29.97576       51.08132       30.48128
H         30.74943       50.70092       29.17351

Ca 1.0



