%chk=apoCaM-CA-Ng.loop2.water4.frame491.chk
%nprocshared=20
%mem=10GB
%nosave
#b3lyp/svp scf=(tight,noincore,xqc) Test 
#IOP(5/87=12) Density=Current Pop=(MK,readradii) iop(6/33=2) iop(6/42=6)

apoCaM-CA-Ng.loop2.water4.frame491 

   -2  1 
C         74.68409       47.70770       74.81953
C         75.77708       47.21051       73.91872
O         75.71775       46.07540       73.46796
H         73.90067       46.93299       74.96101
H         75.11294       47.96484       75.81139
H         74.21778       48.61541       74.38217
N         76.82284       48.02632       73.61437
C         77.94843       47.61417       72.78143
C         78.71564       46.49430       73.45681
O         78.91431       46.56179       74.66045
C         78.89463       48.80973       72.54703
C         80.03336       48.45219       71.62945
O         81.30454       48.54143       72.06419
O         79.81099       48.07970       70.48801
H         76.81459       48.98428       74.00006
H         77.56931       47.28762       71.78670
H         79.29800       49.16302       73.52174
H         78.32635       49.64441       72.08246
N         79.25740       45.47720       72.72940
C         80.05436       44.42035       73.34983
C         79.17374       43.48287       74.15437
O         77.96104       43.60338       74.08360
C         80.79351       43.61967       72.26992
H         79.14715       45.49171       71.70328
H         80.81859       44.88959       74.00825
H         80.07025       43.12816       71.58393
H         81.44339       44.29880       71.67821
H         81.44048       42.84039       72.72468
N         79.72730       42.47502       74.89310
C         78.92255       41.46357       75.57505
C         79.11071       40.13557       74.86864
O         79.90046       40.04918       73.93959
C         79.31131       41.32179       77.06686
C         79.23299       42.60524       77.83477
O         80.00514       43.51133       77.57906
O         78.35899       42.74133       78.85080
H         80.75289       42.37716       74.91805
H         77.84293       41.72034       75.51635
H         80.34631       40.92794       77.16264
H         78.62323       40.59352       77.54742
N         78.39786       39.04725       75.26692
C         78.55315       37.73626       74.66700
C         77.26109       37.20059       74.09905
O         77.27087       36.04076       73.70569
H         77.72970       39.13759       76.04529
H         78.89075       37.04619       75.46981
H         79.32562       37.72291       73.86816
N         76.11398       37.94445       74.00692
C         74.85624       37.35196       73.55815
C         73.77245       38.40277       73.31997
O         73.48780       39.19871       74.20518
C         74.35140       36.34267       74.61886
C         73.16555       35.51958       74.16564
N         72.58416       34.65504       75.02578
O         72.73162       35.61344       73.02671
H         76.13021       38.94379       74.26248
H         75.04951       36.80974       72.60470
H         74.08346       36.90367       75.54092
H         75.14963       35.62113       74.88730
H         72.93145       34.56261       75.99127
H         71.78052       34.08330       74.72688
N         73.08070       38.39795       72.14461
C         71.96823       39.27831       71.80841
C         70.74695       39.11251       72.69863
O         70.81916       38.47339       73.73967
H         73.34335       37.70232       71.42902
H         71.64549       39.00695       70.77898
H         72.29086       40.34023       71.79460
N         69.54993       39.63447       72.29175
C         68.30726       39.46896       73.04902
C         68.22859       40.40270       74.25018
O         67.42016       40.14969       75.13008
C         67.04269       39.60294       72.15596
C         66.87376       40.97874       71.48873
O         67.01273       38.58291       71.18809
H         69.52303       40.08417       71.36597
H         68.29246       38.42538       73.43878
H         66.15456       39.44984       72.80802
H         67.75698       38.73916       70.55130
H         67.70047       41.19994       70.78403
H         65.92536       40.99459       70.91123
H         66.83144       41.78190       72.25016
N         69.02899       41.50239       74.34770
C         69.09519       42.35410       75.53473
C         70.51097       42.30503       76.07511
O         71.36212       41.66237       75.47680
C         68.63287       43.81654       75.23479
C         69.41677       44.46008       74.06156
C         67.11291       43.84669       74.99839
C         69.15503       45.96061       73.90451
H         69.66094       41.72874       73.56748
H         68.44815       41.95625       76.34702
H         68.81520       44.42494       76.14678
H         69.16312       43.94927       73.10770
H         70.50643       44.34412       74.24318
H         66.83794       43.26533       74.09664
H         66.58624       43.41369       75.87620
H         66.73983       44.88443       74.88700
H         69.44682       46.49816       74.83202
H         69.76514       46.35447       73.06437
H         68.09214       46.17440       73.67557
N         70.83259       42.96349       77.22387
C         72.17564       42.94927       77.77871
C         72.10963       42.36825       79.18559
O         72.59821       42.96318       80.13007
C         72.72301       44.38132       77.62135
C         74.14847       44.60446       78.00213
O         74.71511       45.78278       77.67992
O         74.79503       43.75948       78.60056
H         70.11055       43.50579       77.72092
H         72.83751       42.28015       77.18813
H         72.09126       45.10520       78.18268
H         72.64840       44.63211       76.54052
N         71.44709       41.18850       79.37143
C         71.22609       40.51335       80.65315
C         70.60896       41.45655       81.68661
O         69.59393       42.06513       81.37617
C         70.23264       39.34371       80.41674
C         69.83034       38.63545       81.68885
C         70.74303       37.83247       82.39027
C         68.52441       38.78946       82.18911
C         70.35562       37.20118       83.57795
C         68.14428       38.16408       83.37805
C         69.05891       37.37028       84.07284
H         71.02386       40.76030       78.53300
H         72.18666       40.10187       81.02197
H         70.64477       38.60685       79.69326
H         69.32179       39.78101       79.94856
H         71.75139       37.69803       82.01958
H         67.80364       39.40810       81.66835
H         71.06129       36.58379       84.11784
H         67.14083       38.29904       83.76115
H         68.76161       36.88729       84.99448
N         71.11102       41.58798       82.95939
C         70.46221       42.38619       83.98997
C         70.77940       43.86822       83.85969
O         70.21429       44.65607       84.60550
C         71.03172       41.79650       85.28507
C         72.45881       41.48032       84.87790
C         72.25861       40.87412       83.49039
H         69.35934       42.24060       83.97847
H         70.91542       42.43005       86.19040
H         70.52895       40.81982       85.47464
H         72.99639       42.44900       84.76721
H         73.03268       40.83805       85.57967
H         73.18315       41.01158       82.88937
H         72.00281       39.79997       83.56777
N         71.70337       44.31589       82.96696
C         72.04970       45.71838       82.79627
C         70.87223       46.44169       82.17408
O         70.37574       47.39030       82.76522
C         73.32186       45.85391       81.92581
C         74.53638       45.16542       82.59727
C         75.72927       45.18493       81.69458
O         76.13634       44.14353       81.20328
O         76.30256       46.34709       81.34191
H         72.20601       43.62631       82.40026
H         72.29326       46.16795       83.78543
H         73.55445       46.92967       81.76516
H         73.13605       45.39405       80.93053
H         74.29719       44.10255       82.80468
H         74.78683       45.65547       83.56102
N         70.34960       46.02020       80.98766
C         69.20262       46.65797       80.37798
H         68.32924       46.60488       81.06314
H         69.43251       47.72010       80.15095
H         68.93898       46.13894       79.43127
H         70.76454       45.20745       80.50757
Ca        76.11974       46.66237       79.15587
O         79.02188       46.88941       80.58997
H         79.12245       46.16445       81.25711
H         79.94535       47.19995       80.41692
O         76.83554       44.32983       76.46074
H         76.14501       43.78792       76.00096
H         76.87702       45.17053       75.93985
O         77.54238       49.04669       77.85766
H         76.60344       49.12065       78.16194
H         77.47439       48.71695       76.92639
O         79.57618       46.25657       77.59142
H         79.31597       47.15422       77.27206
H         80.01554       45.84136       76.80816

Ca 1.0



