%chk=apoCaM-CA-Ng.loop2.water3.frame641.chk
%nprocshared=20
%mem=10GB
%nosave
#b3lyp/svp scf=(tight,noincore,xqc) Test 
#IOP(5/87=12) Density=Current Pop=(MK,readradii) iop(6/33=2) iop(6/42=6)

apoCaM-CA-Ng.loop2.water3.frame641 

   -2  1 
C         63.54547       35.33899        8.51754
C         62.19510       35.74027        7.99790
O         61.28774       34.92130        8.02138
H         64.27565       36.17195        8.43883
H         63.46280       35.04326        9.58432
H         63.92843       34.47855        7.92981
N         61.98785       36.99208        7.50086
C         60.70011       37.43513        6.97883
C         59.66001       37.41957        8.08406
O         59.88315       38.03026        9.12051
C         60.82606       38.84856        6.37584
C         59.55465       39.27554        5.69370
O         58.90321       40.37945        6.10462
O         59.11405       38.62934        4.75559
H         62.78326       37.64950        7.48122
H         60.40327       36.75116        6.15201
H         61.63517       38.84980        5.61322
H         61.09703       39.57795        7.17046
N         58.48428       36.75207        7.91904
C         57.47977       36.66443        8.97445
C         57.96310       35.72714       10.07573
O         58.79307       34.87739        9.78342
C         56.17120       36.11397        8.38429
H         58.29458       36.30991        7.00593
H         57.28277       37.68718        9.36143
H         55.81242       36.78869        7.57804
H         56.33424       35.10254        7.95350
H         55.36791       36.03636        9.14117
N         57.45585       35.72469       11.34389
C         56.50080       36.69955       11.86662
C         57.14390       38.06338       12.08241
O         58.35721       38.18903       11.99216
C         55.86823       36.17883       13.18264
C         56.87464       35.86879       14.26306
O         57.58697       36.74655       14.72273
O         56.98524       34.61070       14.73290
H         57.77738       34.96869       11.96897
H         55.66764       36.81307       11.14853
H         55.31172       35.24494       12.94781
H         55.13251       36.91311       13.57427
N         56.35810       39.13569       12.38365
C         56.86255       40.46290       12.70390
C         56.41929       41.49659       11.68361
O         55.85902       41.11577       10.66544
H         55.33489       39.00632       12.40690
H         57.97186       40.48499       12.76544
H         56.45322       40.72077       13.70192
N         56.61481       42.83993       11.85960
C         57.19342       43.45042       13.05295
C         58.43443       44.24859       12.68377
O         58.52939       45.43096       12.98606
C         56.11737       44.32030       13.73860
C         54.90336       43.50126       14.11009
N         53.69753       43.75738       13.54949
O         55.01180       42.59308       14.92036
H         56.28817       43.47828       11.11659
H         57.52390       42.68176       13.77975
H         55.82046       45.13463       13.04166
H         56.52639       44.78701       14.66104
H         53.58359       44.51274       12.85794
H         52.87343       43.19043       13.79894
N         59.44901       43.62753       12.02654
C         60.71860       44.25324       11.69601
C         61.52915       44.55328       12.93608
O         62.12013       45.61889       13.03010
H         59.32549       42.64058       11.75304
H         60.57820       45.15552       11.06018
H         61.30908       43.51717       11.11032
N         61.57897       43.63620       13.94125
C         62.36586       43.77464       15.16459
C         63.07133       42.45170       15.45363
O         62.95893       41.53204       14.65349
C         61.43683       44.18322       16.33496
C         60.84372       45.57954       16.11501
O         60.40943       43.23847       16.49132
H         60.98276       42.79813       13.85677
H         63.13982       44.56709       15.06039
H         62.04247       44.24386       17.26610
H         60.07532       43.32886       17.42190
H         60.23228       45.87260       16.99381
H         61.66138       46.32469       15.99966
H         60.20078       45.60598       15.21247
N         63.77356       42.26220       16.61074
C         64.35548       40.97573       16.96754
C         63.52713       40.36193       18.08100
O         63.49728       40.89039       19.18320
C         65.85533       41.11434       17.35473
C         66.42581       39.75456       17.85518
C         66.65156       41.65596       16.15127
C         67.87286       39.83113       18.34204
H         63.84132       43.02427       17.29891
H         64.31321       40.28834       16.10251
H         65.93469       41.84671       18.18828
H         66.34600       38.98198       17.06455
H         65.82891       39.40383       18.72382
H         66.23877       42.62960       15.81492
H         67.71263       41.83327       16.41556
H         66.60752       40.94611       15.29937
H         68.17675       38.84147       18.74477
H         68.56715       40.08437       17.51656
H         67.96397       40.58550       19.15241
N         62.84643       39.20657       17.83827
C         62.11653       38.43993       18.83391
C         62.76261       37.07464       19.04620
O         62.33212       36.39325       19.96782
C         60.62166       38.33687       18.44394
C         60.44277       37.84381       17.03149
O         60.89849       36.63306       16.66170
O         59.97760       38.59163       16.18556
H         62.86392       38.82389       16.88912
H         62.17310       38.94988       19.82087
H         60.18821       39.35941       18.51140
H         60.07045       37.68909       19.15916
N         63.81634       36.61117       18.29289
C         64.55595       35.41076       18.67173
C         65.41322       34.90647       17.50050
O         66.62203       35.09226       17.53388
C         65.37905       35.73340       19.95481
C         65.70839       34.50529       20.77926
C         66.63540       33.53653       20.35596
C         65.05629       34.32540       22.01649
C         66.89806       32.41617       21.15397
C         65.31629       33.20382       22.80393
C         66.23716       32.24899       22.37401
H         64.15612       37.14337       17.48029
H         63.83527       34.61905       18.95782
H         64.75017       36.37702       20.60280
H         66.27793       36.34994       19.73501
H         67.16438       33.63916       19.42201
H         64.33315       35.04965       22.37232
H         67.61490       31.67479       20.82674
H         64.80042       33.07714       23.74729
H         66.43766       31.38072       22.98787
N         64.87334       34.23603       16.42626
C         65.67910       33.62219       15.37207
C         66.46521       34.56319       14.48103
O         67.25432       34.06745       13.68766
C         64.66305       32.85281       14.52325
C         63.62775       32.47713       15.55905
C         63.49902       33.78532       16.33474
H         66.37767       32.91753       15.87868
H         64.16159       33.55568       13.81632
H         65.09371       32.01127       13.93902
H         62.67421       32.08713       15.14723
H         64.07424       31.70530       16.22808
H         62.92373       34.52906       15.74769
H         63.00090       33.57985       17.30034
N         66.29980       35.91625       14.51898
C         67.12302       36.81164       13.71243
C         68.54908       36.67988       14.20192
O         69.42692       36.35624       13.41395
C         66.67004       38.28693       13.79895
C         65.32940       38.59865       13.09636
C         64.15389       37.96277       13.76449
O         63.29438       37.15703       13.11296
O         63.95469       38.19302       14.93964
H         65.60064       36.31364       15.15791
H         67.06568       36.52657       12.63721
H         67.43344       38.90544       13.27738
H         66.64118       38.61832       14.85491
H         65.37248       38.30428       12.02690
H         65.17250       39.69922       13.14597
N         68.83543       36.85828       15.52145
C         70.16085       36.65234       16.05800
H         70.87406       37.36738       15.59934
H         70.14871       36.80457       17.15839
H         70.49011       35.61046       15.85294
H         68.07926       37.10866       16.17691
Ca        61.67504       36.49646       14.54597
O         60.92024       33.69170       13.80459
H         60.24455       33.59670       13.08780
H         60.39840       33.94612       14.60690
O         61.03993       39.49377       12.25092
H         61.54554       39.94193       12.97381
H         61.71677       39.30708       11.55279
O         60.85760       35.96338       11.65480
H         60.90485       36.83282       11.18625
H         61.17673       35.30504       10.98838

Ca 1.0



