%chk=apoCaM-CA-Ng.loop3.water2.frame712.chk
%nprocshared=20
%mem=10GB
%nosave
#b3lyp/svp scf=(tight,noincore,xqc) Test 
#IOP(5/87=12) Density=Current Pop=(MK,readradii) iop(6/33=2) iop(6/42=6)

apoCaM-CA-Ng.loop3.water2.frame712 

   0  1 
C         82.31719      -24.65338        0.14068
C         82.47140      -26.13888        0.27669
O         83.10911      -26.74539       -0.57179
H         81.74010      -24.22703        0.98822
H         83.32447      -24.18371        0.13893
H         81.79803      -24.41077       -0.80806
N         81.94627      -26.79047        1.35113
C         82.18674      -28.20323        1.60588
C         81.54527      -29.07625        0.54260
O         80.32946      -29.06460        0.40729
C         81.68941      -28.57066        3.02162
C         82.27274      -29.84785        3.56019
O         82.05007      -30.16655        4.71618
O         83.14509      -30.56882        2.83714
H         81.43138      -26.23863        2.05459
H         83.28464      -28.34275        1.59666
H         80.58140      -28.57500        3.05450
H         82.03680      -27.78617        3.72395
N         82.32243      -29.85523       -0.26089
C         81.78249      -30.72014       -1.30938
C         80.86178      -31.80666       -0.76274
O         80.07931      -32.34397       -1.53381
C         82.92885      -31.31931       -2.16592
C         83.89618      -32.22129       -1.36663
C         85.15471      -32.55947       -2.17932
C         86.16599      -33.32813       -1.31551
N         87.40777      -33.58119       -2.04490
H         83.34141      -29.78869       -0.13881
H         81.17376      -30.07071       -1.97832
H         83.50196      -30.45937       -2.57824
H         82.51666      -31.89192       -3.02618
H         83.37626      -33.14997       -1.04636
H         84.24170      -31.69476       -0.45616
H         85.63444      -31.60975       -2.50545
H         84.88536      -33.15177       -3.08053
H         85.72302      -34.29306       -0.98386
H         86.40447      -32.72169       -0.41484
H         88.07697      -34.07968       -1.41420
H         87.22019      -34.17583       -2.88369
H         87.84124      -32.67653       -2.34147
N         80.93161      -32.21348        0.53910
C         80.07879      -33.25003        1.11766
C         79.41960      -32.81261        2.43716
O         78.70630      -33.61598        3.02157
C         80.89335      -34.55632        1.23317
C         82.18651      -34.42730        1.99083
O         83.24843      -34.62259        1.42130
O         82.18929      -34.12679        3.29747
H         81.67561      -31.82583        1.13452
H         79.23876      -33.49265        0.42921
H         81.14086      -34.87437        0.19517
H         80.27034      -35.35840        1.68364
N         79.56047      -31.54862        2.93737
C         78.88990      -31.04341        4.13565
C         79.37255      -31.60310        5.46597
O         78.88038      -31.12917        6.48364
H         80.10157      -30.86227        2.40232
H         77.79399      -31.19592        4.03825
H         79.06469      -29.94790        4.18667
N         80.29909      -32.59494        5.56378
C         80.76608      -33.16748        6.82609
C         82.29062      -33.18406        6.87611
O         82.91595      -32.92178        5.85727
C         80.20009      -34.60449        6.89853
C         80.57166      -35.37926        8.13542
N         80.20007      -34.95149        9.36381
O         81.21189      -36.41430        8.02406
H         80.66227      -33.00756        4.69959
H         80.38755      -32.57115        7.68573
H         80.55591      -35.16355        6.00325
H         79.09098      -34.55285        6.84547
H         79.65843      -34.08330        9.47929
H         80.46100      -35.49059       10.20270
N         82.96893      -33.52880        8.00867
C         84.40804      -33.74608        8.02529
C         85.22293      -32.52116        7.67766
O         84.68964      -31.42502        7.58415
H         82.44960      -33.71699        8.87877
H         84.63136      -34.53877        7.27863
H         84.73359      -34.11817        9.02067
N         86.55359      -32.67574        7.41791
C         87.42498      -31.58736        6.98237
C         86.83817      -30.93652        5.70196
O         86.72890      -31.93837        4.72793
C         88.84500      -32.13109        6.65531
C         89.55160      -32.80600        7.80274
C         89.96211      -32.07412        8.92776
C         89.84414      -34.17964        7.73202
C         90.66316      -32.70724        9.96098
C         90.53501      -34.81081        8.76768
C         90.95246      -34.07865        9.88231
O         91.63429      -34.70124       10.86464
H         86.94616      -33.62714        7.48707
H         87.48456      -30.82459        7.78958
H         89.50152      -31.31048        6.29439
H         88.74669      -32.85833        5.81970
H         89.75786      -31.01295        8.99533
H         89.54025      -34.76493        6.87264
H         90.98770      -32.13069       10.81772
H         90.75341      -35.86920        8.69764
H         91.95620      -34.23108       11.64654
N         87.68016      -29.81207        5.23347
C         87.07697      -28.86588        4.26025
C         87.02000      -29.48228        2.86465
O         86.33164      -30.46676        2.68329
C         85.67972      -28.30413        4.70205
C         85.13655      -27.24209        3.70415
C         85.68123      -27.72340        6.12850
C         85.97369      -25.96747        3.55044
H         87.96621      -29.24957        6.06926
H         87.77200      -28.00148        4.21076
H         84.95113      -29.14371        4.70631
H         84.12018      -26.93326        4.02379
H         85.05014      -27.70540        2.70738
H         85.92646      -28.50372        6.87655
H         86.41064      -26.89450        6.22991
H         84.66754      -27.34180        6.38276
H         86.98804      -26.19048        3.16608
H         85.47920      -25.29724        2.81511
H         86.05127      -25.41828        4.51022
N         87.67900      -28.93227        1.80440
C         87.61041      -29.51979        0.46230
C         88.97674      -29.82229       -0.14057
O         89.00915      -30.41242       -1.21106
C         86.85053      -28.56856       -0.46893
O         85.55905      -28.33591        0.02402
H         88.19556      -28.05133        1.94290
H         87.05333      -30.48157        0.48640
H         86.75630      -29.01232       -1.48292
H         87.41587      -27.61251       -0.57988
H         85.55770      -27.42726        0.42303
N         90.13877      -29.39900        0.43153
C         91.43752      -29.54267       -0.21780
C         91.94734      -30.97868       -0.19098
O         91.81263      -31.61366        0.84570
C         92.46503      -28.66025        0.49230
H         90.10227      -28.86586        1.31047
H         91.36175      -29.13525       -1.24538
H         93.43041      -28.71211       -0.04536
H         92.12633      -27.60256        0.47871
H         92.61131      -28.98253        1.54512
N         92.66666      -31.54113       -1.21243
C         92.96423      -30.88601       -2.48303
C         94.19170      -31.50478       -3.15470
O         94.19515      -32.71223       -3.35194
C         91.76609      -31.02133       -3.42745
H         93.06761      -32.47796       -1.04427
H         93.14997      -29.81494       -2.30759
H         91.98604      -30.51172       -4.39005
H         91.54867      -32.09229       -3.63002
H         90.86006      -30.55856       -2.99406
N         95.25941      -30.76651       -3.59942
C         95.34800      -29.30932       -3.50854
C         95.55723      -28.80372       -2.08507
O         95.47882      -27.59794       -1.89167
C         96.46132      -28.73360       -4.41928
C         97.88941      -29.15056       -4.02072
C         98.90681      -28.39952       -4.83155
O         99.79573      -27.59670       -4.21460
O         98.93242      -28.50570       -6.04726
H         96.00271      -31.27435       -4.10279
H         94.39566      -28.89537       -3.90814
H         96.39378      -27.62340       -4.37030
H         96.26951      -29.03176       -5.47388
H         98.03530      -30.24052       -4.16987
H         98.06663      -28.91680       -2.94991
N         95.87170      -29.64175       -1.05431
C         96.13006      -29.17623        0.29496
H         96.01265      -28.07621        0.39674
H         95.42730      -29.66905        0.99776
H         97.16902      -29.44057        0.58168
H         95.96660      -30.65305       -1.22063
Ca        84.58126      -31.84677        3.98391
O         85.02519      -35.18011        4.21450
H         85.26397      -35.82805        3.50464
H         84.45000      -35.69337        4.83558
O         86.53430      -33.50176        2.13221
H         86.64618      -34.34600        1.62768
H         87.39510      -33.02616        2.01682

Ca 1.0



