%chk=apoCaM-CA-Ng.loop4.water3.frame361.chk
%nprocshared=20
%mem=10GB
%nosave
#b3lyp/svp scf=(tight,noincore,xqc) Test 
#IOP(5/87=12) Density=Current Pop=(MK,readradii) iop(6/33=2) iop(6/42=6)

apoCaM-CA-Ng.loop4.water3.frame361 

   -3  1 
C         84.32863       90.29776       47.90745
C         85.10871       89.89923       49.12216
O         84.99094       90.56791       50.13625
H         83.72464       91.20895       48.11397
H         85.02389       90.51364       47.07053
H         83.64123       89.47572       47.61988
N         85.91071       88.79394       49.09985
C         86.68532       88.32652       50.24631
C         85.78756       88.04531       51.43217
O         85.94535       88.66847       52.45843
C         87.94756       89.19993       50.52091
C         87.86545       90.71470       50.46468
O         87.19081       91.48850       51.34267
O         88.49657       91.28518       49.58828
H         85.94383       88.23077       48.23652
H         87.11820       87.32958       50.00047
H         88.65648       88.92502       49.70601
H         88.43157       88.87524       51.46719
N         84.84272       87.06272       51.33598
C         83.87659       86.62765       52.35331
C         84.53996       86.03198       53.59812
O         84.44962       84.82420       53.77240
C         82.82485       87.72131       52.69136
C         81.69358       87.19495       53.62349
C         82.22552       88.32393       51.40906
C         80.80176       86.09823       53.02077
H         84.79282       86.56100       50.43489
H         83.31964       85.79587       51.86847
H         83.33568       88.54761       53.22753
H         81.03629       88.04801       53.89883
H         82.13622       86.80446       54.56364
H         81.75062       87.54719       50.77562
H         81.46913       89.08832       51.66808
H         83.01125       88.81940       50.80566
H         80.27464       86.46088       52.11447
H         81.38249       85.18850       52.76818
H         80.02688       85.80638       53.75993
N         85.21051       86.79628       54.51168
C         85.88620       86.23271       55.67203
C         84.87759       85.70607       56.69604
O         84.92159       84.50954       56.94497
C         86.92370       87.22488       56.26117
C         88.04291       87.56349       55.30247
O         89.02437       88.39328       55.70325
O         88.08156       87.09660       54.17416
H         85.26421       87.81067       54.38999
H         86.50319       85.36844       55.33071
H         87.38608       86.76567       57.16114
H         86.46324       88.18257       56.54748
N         83.92589       86.45999       57.33348
C         83.73894       87.89535       57.15791
C         82.58666       88.47545       57.97197
O         81.92085       87.72182       58.66757
H         83.30396       85.95420       57.98197
H         83.54584       88.09377       56.09009
H         84.64498       88.38772       57.51156
N         82.24493       89.80563       57.96448
C         82.87737       90.89698       57.22145
C         82.82171       90.66844       55.71910
O         83.84309       90.32317       55.14281
C         84.30543       91.23005       57.71910
C         84.33349       91.50976       59.19493
O         85.10693       90.76422       60.00680
O         83.66721       92.41915       59.66356
H         81.43688       90.07935       58.54639
H         82.31367       91.83119       57.43143
H         84.66652       92.13674       57.18558
H         85.02588       90.42973       57.48976
N         81.70877       90.90772       54.96581
C         80.46091       91.47775       55.44647
C         79.59583       90.50923       56.20290
O         79.95766       89.35251       56.36475
H         81.78576       90.76383       53.95020
H         79.85500       91.77566       54.56505
H         80.65632       92.40064       56.03029
N         78.37200       90.92964       56.63391
C         77.39820       90.05420       57.27337
C         76.21862       89.77156       56.34501
O         75.39681       88.93737       56.69847
C         77.04046       90.57784       58.68569
C         76.38383       91.96935       58.77518
C         74.95907       91.99196       58.29670
N         74.01421       91.24174       58.91025
O         74.64457       92.72205       57.37257
H         78.10142       91.90683       56.44517
H         77.85916       89.05549       57.43879
H         78.00045       90.63969       59.24427
H         76.40964       89.83228       59.21507
H         76.99741       92.71795       58.23148
H         76.36554       92.27899       59.84227
H         74.25394       90.64093       59.71166
H         73.03387       91.27370       58.59758
N         76.13118       90.33973       55.10000
C         75.20358       89.89170       54.06285
C         74.24031       90.97626       53.59891
O         73.46449       90.69088       52.69674
C         76.01122       89.33658       52.84508
C         76.89645       88.15198       53.26062
C         76.87124       90.40723       52.14167
H         76.80559       91.06361       54.82434
H         74.57040       89.05905       54.44191
H         75.28202       88.95320       52.09663
H         77.66884       88.46800       53.99421
H         76.27556       87.35095       53.71464
H         77.41164       87.72825       52.37194
H         76.24274       91.25502       51.79698
H         77.66987       90.80000       52.80377
H         77.36371       89.96916       51.24766
N         74.19882       92.21860       54.16431
C         73.26929       93.25558       53.71644
C         73.96978       94.56407       53.35392
O         73.28079       95.46217       52.88724
C         72.24818       93.55241       54.83742
C         71.54390       92.31792       55.34559
N         70.78482       91.55371       54.52806
O         71.65704       92.00905       56.52181
H         74.80637       92.42115       54.96556
H         72.71395       92.91135       52.81733
H         71.48540       94.27422       54.47181
H         72.78355       94.02473       55.68967
H         70.66821       91.79466       53.53419
H         70.31096       90.71448       54.89512
N         75.29010       94.79383       53.63198
C         75.89988       96.11766       53.54237
C         77.26691       96.06011       52.88809
O         78.08819       95.29034       53.36259
C         76.11105       96.65622       54.97613
C         74.84205       96.68765       55.79416
C         74.74986       95.91679       56.96553
C         73.74889       97.48148       55.40895
C         73.58604       95.93532       57.73637
C         72.58321       97.49844       56.18266
C         72.49739       96.72706       57.34724
O         71.36868       96.75521       58.08381
H         75.85857       94.05705       54.06961
H         75.24172       96.83707       53.00782
H         76.53366       97.68323       54.93076
H         76.85585       96.01031       55.49319
H         75.57944       95.29791       57.28398
H         73.79781       98.08692       54.51290
H         73.53321       95.33311       58.63469
H         71.74608       98.11347       55.87770
H         71.27345       96.23876       58.89707
N         77.61770       96.94805       51.90535
C         78.97976       97.15691       51.39496
C         79.45659       96.12398       50.38204
O         79.90324       96.54354       49.32182
C         80.01748       97.37085       52.52502
C         79.66088       98.58843       53.39340
C         80.67266       98.79238       54.48299
O         80.85284       97.84485       55.42304
O         81.32386       99.82371       54.53301
H         76.90435       97.62692       51.59841
H         78.97279       98.11862       50.83037
H         81.01309       97.55912       52.06492
H         80.12324       96.46420       53.15345
H         78.66528       98.45438       53.86413
H         79.62358       99.49328       52.74634
N         79.43963       94.78047       50.61580
C         80.01694       93.81177       49.68442
C         79.36129       93.81604       48.30657
O         79.88531       93.14693       47.42534
C         79.96009       92.37388       50.25871
C         80.60895       92.17757       51.64250
C         82.07032       92.52779       51.67687
O         82.43224       93.68333       51.53189
O         82.98797       91.57422       51.91701
H         79.04997       94.43487       51.49237
H         81.08045       94.09287       49.53110
H         80.46184       91.68065       49.54703
H         78.89445       92.06492       50.34032
H         80.48220       91.10921       51.90840
H         80.08459       92.76115       52.42390
N         78.23587       94.53302       48.02557
C         77.66648       94.56326       46.69649
H         76.76394       95.21002       46.68570
H         78.40736       94.97955       45.97993
H         77.37995       93.53828       46.38070
H         77.75964       95.07761       48.75695
Ca        85.81992       91.19081       53.11011
O         84.43169       93.72980       54.53156
H         83.46021       93.54492       54.58096
H         84.49547       94.71736       54.49729
O         87.06932       91.17643       55.65923
H         87.01213       92.09883       56.01382
H         87.73422       90.72582       56.23593
O         85.59127       93.96055       51.34688
H         85.74310       93.56618       50.45145
H         84.88239       94.63526       51.20148

Ca 1.0



