%chk=apoCaM-CA-Ng.loop2.water5.frame1471.chk
%nprocshared=20
%mem=10GB
%nosave
#b3lyp/svp scf=(tight,noincore,xqc) Test 
#IOP(5/87=12) Density=Current Pop=(MK,readradii) iop(6/33=2) iop(6/42=6)

apoCaM-CA-Ng.loop2.water5.frame1471 

   -2  1 
C         46.88055       64.74825       78.00338
C         47.73309       65.86585       78.53562
O         48.04059       65.84828       79.71849
H         45.92923       65.16078       77.60579
H         47.42268       64.20621       77.20102
H         46.63564       64.02508       78.81037
N         48.16094       66.89996       77.75676
C         47.86723       67.05285       76.33257
C         46.97893       68.26210       76.06117
O         46.65301       68.49350       74.90515
C         49.18786       67.10201       75.54032
C         50.08952       68.22372       75.96395
O         51.28936       67.93618       76.49847
O         49.74710       69.38766       75.82819
H         48.72685       67.63533       78.21113
H         47.30344       66.18039       75.94652
H         48.98497       67.18943       74.45155
H         49.72289       66.14146       75.70858
N         46.50834       69.04635       77.07381
C         45.58173       70.15433       76.88852
C         46.16193       71.46321       77.40713
O         45.42000       72.43322       77.48579
C         44.29838       69.81065       77.65576
H         46.77327       68.83817       78.04733
H         45.30695       70.29389       75.82035
H         43.53637       70.60847       77.52919
H         43.87156       68.86050       77.26870
H         44.51213       69.68707       78.74007
N         47.47230       71.57241       77.77912
C         48.02768       72.76045       78.42018
C         49.04181       73.50807       77.55822
O         49.52410       74.53033       78.02059
C         48.57839       72.37645       79.81652
C         49.70919       71.37726       79.84217
O         50.20312       70.97743       81.02890
O         50.18404       70.92016       78.81671
H         48.09992       70.77230       77.63230
H         47.21954       73.50072       78.60948
H         47.73938       71.94341       80.40408
H         48.91761       73.29446       80.34071
N         49.35215       73.13454       76.28065
C         50.20177       73.93948       75.40782
C         51.64590       73.98129       75.86133
O         52.27970       72.94097       75.90975
H         48.91008       72.29933       75.87149
H         49.77554       74.96536       75.34251
H         50.18453       73.51156       74.38273
N         52.23628       75.16590       76.18638
C         53.61986       75.30885       76.64273
C         53.66214       75.85884       78.06906
O         54.74399       76.17317       78.54636
C         54.36143       76.28495       75.69978
C         54.45065       75.78363       74.28046
N         55.15034       74.66419       73.98684
O         53.90929       76.41095       73.38278
H         51.67027       76.02697       76.12536
H         54.15877       74.33530       76.64404
H         55.40100       76.45142       76.05879
H         53.83402       77.26457       75.71605
H         55.63136       74.14132       74.72904
H         55.22851       74.33075       73.01457
N         52.52531       75.98927       78.81346
C         52.45577       76.61981       80.11766
C         52.05533       75.62599       81.18997
O         51.11967       74.87502       80.95552
H         51.63277       75.65137       78.44024
H         51.66815       77.39842       80.05688
H         53.38187       77.15778       80.35424
N         52.63728       75.57689       82.42702
C         53.68764       76.48149       82.89324
C         54.97581       76.21938       82.13771
O         55.47387       77.13167       81.49206
C         53.87311       76.39387       84.43140
C         52.60482       76.84816       85.16903
O         54.19188       75.08576       84.83592
H         52.25478       74.88814       83.09415
H         53.36854       77.53070       82.69780
H         54.68011       77.10932       84.72403
H         55.11574       75.10043       85.19864
H         51.74100       76.19084       84.93571
H         52.77180       76.82385       86.26615
H         52.34215       77.88874       84.87979
N         55.54795       74.98418       82.13610
C         56.67156       74.62878       81.27206
C         56.27617       73.44008       80.39010
O         55.24559       72.83633       80.65265
C         57.94759       74.31966       82.11747
C         57.70316       73.18806       83.14786
C         58.46257       75.60504       82.78479
C         58.97723       72.72679       83.85556
H         55.13030       74.24495       82.71955
H         56.89229       75.47790       80.59280
H         58.74916       73.98541       81.43356
H         57.28814       72.30875       82.61654
H         56.96632       73.50797       83.91438
H         57.72722       75.99609       83.51806
H         59.42980       75.42996       83.29766
H         58.64992       76.38069       82.01148
H         58.73733       71.88065       84.53258
H         59.72185       72.38860       83.10800
H         59.42011       73.53361       84.47155
N         57.02813       72.99315       79.34091
C         58.22166       73.63737       78.81399
C         59.44831       72.82029       79.15385
O         59.33556       71.77188       79.77589
C         58.06238       73.88005       77.29162
C         58.02575       72.60937       76.47957
O         58.99001       71.86102       76.45908
O         56.94429       72.30747       75.74050
H         56.72519       72.12961       78.87162
H         58.36858       74.63116       79.27545
H         58.90352       74.49821       76.91314
H         57.12828       74.46050       77.12175
N         60.67386       73.27170       78.78755
C         61.90573       72.58150       79.12669
C         62.11418       72.59142       80.63731
O         62.04912       73.67128       81.21139
C         63.08883       73.26778       78.39870
C         64.42658       72.64624       78.73038
C         65.06318       71.78576       77.82074
C         65.05641       72.93160       79.95610
C         66.29534       71.20700       78.14395
C         66.28805       72.35757       80.27194
C         66.90591       71.49160       79.36877
H         60.73046       74.14942       78.24819
H         61.84653       71.55193       78.72345
H         63.13704       74.35754       78.61586
H         62.88876       73.16329       77.30857
H         64.60146       71.55119       76.86987
H         64.60074       73.60603       80.66800
H         66.77712       70.53617       77.44525
H         66.76055       72.58484       81.21884
H         67.85886       71.04428       79.61802
N         62.46290       71.47135       81.35176
C         62.73167       70.15337       80.79283
C         61.54446       69.20331       80.91872
O         61.63513       68.10628       80.38542
C         63.86804       69.65718       81.69054
C         63.40555       70.14852       83.05771
C         62.92585       71.56018       82.72664
H         63.08670       70.18045       79.74354
H         64.08350       68.56917       81.62307
H         64.79445       70.21395       81.42602
H         62.53189       69.53349       83.36540
H         64.16202       70.10181       83.86860
H         62.15099       71.91873       83.43709
H         63.79747       72.25146       82.74407
N         60.44549       69.50788       81.67224
C         59.35530       68.56547       81.90518
C         59.91050       67.30252       82.56781
O         60.38068       67.41784       83.69147
C         58.29091       69.22725       82.81349
C         57.08164       68.33530       83.12767
C         56.08940       69.08059       83.97855
O         55.56027       70.09832       83.55942
O         55.77716       68.62829       85.20830
H         60.39950       70.42457       82.13558
H         58.87041       68.36947       80.93687
H         57.93274       70.14123       82.29707
H         58.76387       69.52959       83.77526
H         57.41737       67.42886       83.67675
H         56.58492       68.01842       82.18670
N         59.93940       66.06509       81.98348
C         59.51187       65.72039       80.63945
H         59.12809       66.56009       80.04245
H         60.37951       65.30421       80.08446
H         58.72104       64.94468       80.69086
H         60.33457       65.28727       82.53490
Ca        52.34570       70.42983       77.04179
O         53.21401       69.57456       79.93996
H         52.54426       69.26519       80.59971
H         53.91284       70.01877       80.48312
O         53.48716       70.49668       74.15768
H         52.96890       70.20052       73.36779
H         53.68728       71.45025       73.98149
O         55.02557       70.80829       77.72431
H         55.47698       70.06095       78.19040
H         55.22093       70.66035       76.76597
O         52.75802       72.87015       78.80349
H         51.79543       73.09019       78.85938
H         52.91954       72.27799       79.57791
O         54.33352       67.91883       76.80555
H         54.13537       68.21485       75.88154
H         53.80107       67.09274       76.92304

Ca 1.0



