%chk=apoCaM-CA-Ng.loop1.water3.frame727.chk
%nprocshared=20
%mem=10GB
%nosave
#b3lyp/svp scf=(tight,noincore,xqc) Test 
#IOP(5/87=12) Density=Current Pop=(MK,readradii) iop(6/33=2) iop(6/42=6)

apoCaM-CA-Ng.loop1.water3.frame727 

   0  1 
C         85.79042        9.59260      115.76235
C         85.92470       10.84274      114.94277
O         85.34624       11.85262      115.31747
H         86.18569        9.77746      116.78348
H         84.72097        9.30450      115.83265
H         86.35647        8.74918      115.31406
N         86.69090       10.85157      113.81471
C         86.89019       12.03822      112.98547
C         86.42831       11.82288      111.51467
O         86.03551       10.49589      111.28776
C         88.35612       12.51022      113.05846
C         89.40343       11.54107      112.56976
O         89.10745       10.45118      112.10822
O         90.70113       11.88960      112.65186
H         87.16950        9.97972      113.54598
H         86.30712       12.88855      113.40552
H         88.58166       12.74149      114.12259
H         88.45734       13.45230      112.47691
N         85.35094       12.76621      111.18006
C         84.77117       12.67462      109.82534
C         85.75165       13.12922      108.74855
O         86.22936       14.25365      108.80933
C         83.49828       13.54983      109.83212
C         82.67043       13.54073      108.53542
C         81.38815       14.36457      108.75623
C         80.49657       14.43272      107.51092
N         79.27633       15.19205      107.79588
H         85.69379       13.74349      111.34019
H         84.44536       11.62888      109.63155
H         83.77458       14.60167      110.06966
H         82.84962       13.17169      110.65348
H         82.39395       12.49665      108.27151
H         83.26429       13.97716      107.70272
H         81.66213       15.40110      109.05293
H         80.80515       13.90273      109.58379
H         80.21889       13.40469      107.18983
H         81.05264       14.92497      106.68266
H         78.69113       15.24768      106.93150
H         78.72332       14.71541      108.54566
H         79.51553       16.16267      108.10472
N         86.05613       12.30664      107.70224
C         86.94231       12.69771      106.59813
C         86.89658       11.70596      105.43012
O         86.42858       10.58972      105.60145
C         88.40872       12.92738      107.07368
C         88.81325       11.93039      108.11537
O         89.08832       12.32462      109.23814
O         88.67359       10.61167      107.90810
H         85.59613       11.38488      107.67484
H         86.52118       13.63645      106.18093
H         88.47620       13.93371      107.53961
H         89.13178       12.90716      106.23222
N         87.27925       12.06525      104.16314
C         87.79016       13.38125      103.79925
C         86.75018       14.19089      103.07355
O         85.62815       14.27677      103.55298
H         87.14883       11.38197      103.40163
H         88.73613       13.27957      103.22513
H         88.03984       13.99074      104.67926
N         87.08758       14.92173      101.97646
C         86.14965       15.81740      101.31030
C         85.08634       15.01918      100.58756
O         85.42569       14.18019       99.76367
C         86.89511       16.73534      100.32317
C         85.96089       17.71528       99.66362
O         85.84226       17.72753       98.44915
O         85.25046       18.58353      100.41011
H         88.06699       14.89465      101.65297
H         85.68990       16.48792      102.07301
H         87.41220       16.12331       99.55272
H         87.66215       17.31598      100.88124
N         83.76702       15.26326      100.81821
C         82.70788       14.56354      100.11443
C         82.53258       13.12577      100.55264
O         81.65053       12.47723      100.00697
H         83.49913       16.01487      101.47194
H         82.88791       14.62549       99.01917
H         81.74282       15.07326      100.32741
N         83.26800       12.57288      101.56359
C         83.00001       11.24839      102.10877
C         84.22606       10.35776      102.02215
O         85.30974       10.82816      101.70227
C         82.57661       11.40649      103.59677
C         81.38659       12.35455      103.76333
O         82.23127       10.16153      104.14826
H         83.99713       13.12609      102.02935
H         82.17977       10.75658      101.54089
H         83.44486       11.84634      104.14809
H         82.56989       10.14568      105.08147
H         80.50450       11.96806      103.21110
H         81.13104       12.44238      104.84036
H         81.63457       13.37086      103.39090
N         84.10735        9.03658      102.32940
C         85.22789        8.11093      102.43320
C         85.97588        8.05305      101.11498
O         87.16839        8.31639      101.11333
C         84.74133        6.69914      102.90671
C         83.94725        6.73706      104.25051
C         85.91657        5.71049      103.02317
C         84.70858        7.32027      105.44223
H         83.15990        8.68251      102.51160
H         85.93204        8.49307      103.20503
H         84.04514        6.28855      102.14230
H         83.62817        5.70450      104.50999
H         83.01362        7.32234      104.13990
H         86.67399        6.06768      103.75089
H         85.54661        4.71476      103.35023
H         86.41532        5.57380      102.04176
H         85.61733        6.72800      105.66940
H         84.98697        8.37674      105.25843
H         84.05107        7.30013      106.33668
N         85.33487        7.71295       99.96010
C         85.99975        7.67325       98.65153
C         85.17050        6.89882       97.62564
O         84.06659        6.46720       97.92477
C         86.34781        9.10577       98.13295
C         85.10800        9.99814       97.99774
O         87.27209        9.72782       98.98577
H         84.33968        7.45873      100.03454
H         86.93549        7.08098       98.75668
H         86.82168        9.00489       97.13079
H         87.70023       10.46358       98.47436
H         84.37796        9.55303       97.29085
H         84.62090       10.14370       98.98464
H         85.40763       10.99435       97.60682
N         85.69134        6.64514       96.38873
C         85.03192        5.81107       95.39236
C         85.93587        4.62082       95.10578
O         85.56083        3.50333       95.43429
C         84.66218        6.65667       94.14295
C         84.01118        5.80839       93.04510
O         85.78940        7.31503       93.62535
H         86.62289        7.01723       96.15514
H         84.07509        5.41014       95.79650
H         83.92796        7.42308       94.48671
H         85.45982        8.06547       93.06511
H         83.71947        6.45852       92.19290
H         84.72161        5.04133       92.66936
H         83.10121        5.30517       93.43314
N         87.14424        4.79124       94.50037
C         88.09632        3.72029       94.24370
C         89.46073        4.16875       94.72777
O         89.83287        5.30104       94.44297
C         88.14511        3.42516       92.73352
C         88.93402        2.13310       92.45160
C         88.94146        1.78413       90.96040
C         89.60026        0.41609       90.72776
N         89.60946        0.07146       89.30694
H         87.40845        5.73205       94.18161
H         87.77850        2.77930       94.74706
H         88.57236        4.28978       92.17874
H         87.10408        3.26273       92.37691
H         88.44314        1.30219       93.00644
H         89.98207        2.22648       92.81058
H         89.49100        2.57257       90.40116
H         87.89558        1.74023       90.58562
H         89.03244       -0.36299       91.28545
H         90.64468        0.42800       91.11104
H         90.03958       -0.87421       89.18755
H         88.63187        0.04614       88.93555
H         90.17347        0.77119       88.77249
N         90.29284        3.33639       95.41178
C         91.62137        3.77564       95.81629
C         91.55706        4.56766       97.11761
O         91.98047        5.71447       97.09791
C         92.64740        2.62390       95.78740
C         94.07865        3.15486       95.99034
C         95.09921        2.08165       95.74763
O         95.92627        2.21460       94.85875
O         95.11167        0.97034       96.50673
H         90.01235        2.35459       95.55991
H         92.00966        4.45530       95.02141
H         92.59452        2.16362       94.77520
H         92.42189        1.83142       96.52455
H         94.19747        3.55379       97.02031
H         94.26804        3.98444       95.27207
N         91.03748        4.09137       98.28818
C         90.44134        2.78495       98.46802
H         89.56097        2.66443       97.80597
H         91.17975        1.98302       98.29122
H         90.08290        2.68091       99.51423
H         91.04093        4.71718       99.10904
Ca        87.44416        9.86913      109.62189
O         85.75527        7.87735      108.39845
H         85.19718        8.67973      108.55942
H         86.41035        8.16583      107.71347
O         89.81071        7.20867      108.58999
H         90.46565        6.80478      109.21344
H         90.35277        7.49284      107.81144
O         91.32306        9.78183      109.38970
H         91.56588       10.23278      108.54216
H         91.70784       10.35713      110.09738

Ca 1.0



