%chk=apoCaM-CA-Ng.loop4.water4.frame176.chk
%nprocshared=20
%mem=10GB
%nosave
#b3lyp/svp scf=(tight,noincore,xqc) Test 
#IOP(5/87=12) Density=Current Pop=(MK,readradii) iop(6/33=2) iop(6/42=6)

apoCaM-CA-Ng.loop4.water4.frame176 

   -3  1 
C         57.14722       45.67311       29.62944
C         55.67489       45.62828       29.90640
O         54.90726       45.77570       28.96820
H         57.74088       45.51195       30.55269
H         57.40681       44.88050       28.89569
H         57.41250       46.66241       29.20079
N         55.20340       45.39771       31.16797
C         53.78489       45.31041       31.50298
C         53.09866       44.22958       30.68850
O         52.12653       44.49238       30.00645
C         53.10174       46.70914       31.58500
C         53.47128       47.78588       30.58204
O         53.12528       47.76646       29.27937
O         54.08420       48.76187       30.98714
H         55.88188       45.22613       31.92544
H         53.69739       44.92628       32.54587
H         53.44510       47.12010       32.56287
H         51.99957       46.60309       31.67539
N         53.57147       42.95227       30.78743
C         53.04908       41.74772       30.14269
C         51.65033       41.39585       30.63789
O         51.54194       40.46817       31.42878
C         53.18429       41.77753       28.59342
C         52.69306       40.46282       27.92522
C         54.63481       42.08604       28.17799
C         53.41261       39.18847       28.38555
H         54.39077       42.80669       31.39893
H         53.71282       40.92868       30.50118
H         52.55657       42.59913       28.18969
H         52.81904       40.55739       26.82559
H         51.60783       40.33008       28.12126
H         54.72022       42.11546       27.07202
H         54.94754       43.07725       28.56323
H         55.34254       41.32868       28.57246
H         53.24227       38.99528       29.46362
H         53.01181       38.31832       27.82468
H         54.50253       39.24851       28.19768
N         50.53296       42.04829       30.20222
C         49.19808       41.73814       30.69849
C         48.52057       40.63720       29.87568
O         48.22177       39.61604       30.47989
C         48.36082       43.02165       30.88128
C         48.99358       43.94396       31.89064
O         49.32567       45.07376       31.57219
O         49.18499       43.53048       33.15818
H         50.61921       42.77885       29.48622
H         49.28786       41.32080       31.72909
H         47.34881       42.75250       31.25272
H         48.24787       43.56713       29.92735
N         48.23010       40.68824       28.53815
C         48.53040       41.80151       27.65003
C         48.08254       41.56961       26.20461
O         47.52483       40.51830       25.92336
H         47.76960       39.85315       28.14591
H         49.62270       41.95220       27.65516
H         47.99673       42.67794       28.02447
N         48.28839       42.47135       25.18901
C         48.94831       43.77623       25.27187
C         50.36071       43.60293       25.79760
O         50.66319       44.11066       26.86637
C         48.10624       44.80548       26.05971
C         46.72178       44.93130       25.48747
O         46.56197       45.27703       24.32746
O         45.64892       44.66131       26.25524
H         47.96970       42.19204       24.24743
H         49.01936       44.20914       24.24968
H         48.60260       45.79823       26.00657
H         48.02896       44.54807       27.12577
N         51.28772       42.84227       25.14938
C         51.11833       42.27312       23.82292
C         50.96150       40.78026       23.86419
O         50.86490       40.19841       24.93588
H         52.19150       42.67095       25.61497
H         52.01082       42.54695       23.21967
H         50.23718       42.67416       23.28968
N         50.94178       40.09261       22.69008
C         50.81845       38.64381       22.60940
C         52.18086       37.98026       22.45026
O         52.23369       36.75817       22.48028
C         49.73038       38.23262       21.58277
C         49.84507       38.81045       20.15752
C         51.08586       38.39511       19.42208
N         51.33092       37.09214       19.15439
O         51.86463       39.25165       19.03515
H         51.11201       40.62177       21.82209
H         50.46446       38.24670       23.58674
H         48.75648       38.59771       21.97775
H         49.66707       37.12416       21.53998
H         49.78510       39.91868       20.19908
H         48.96716       38.46935       19.56728
H         50.67172       36.35940       19.45371
H         52.17574       36.81593       18.63378
N         53.33259       38.71706       22.41364
C         54.67138       38.14789       22.56271
C         55.56152       38.40022       21.35650
O         56.72074       38.01433       21.40444
C         55.33192       38.69398       23.86216
C         54.51706       38.29425       25.09807
C         55.53174       40.21822       23.84368
H         53.27115       39.74188       22.36211
H         54.61594       37.04190       22.67014
H         56.33481       38.22343       23.96433
H         55.04279       38.63271       26.01313
H         53.50477       38.75209       25.07751
H         54.40983       37.19026       25.14958
H         56.05933       40.54369       24.76537
H         56.14440       40.52162       22.96957
H         54.56252       40.75402       23.80658
N         55.08642       39.00283       20.23206
C         55.85475       39.17392       19.00640
C         56.00752       40.65511       18.66635
O         57.11705       41.04781       18.33155
C         55.14797       38.43243       17.84452
C         55.09883       36.91317       17.88173
N         55.72682       36.16110       18.81731
O         54.47117       36.34505       17.00056
H         54.11047       39.31950       20.21388
H         56.88067       38.74985       19.08395
H         55.65128       38.70029       16.88969
H         54.10257       38.78381       17.80120
H         56.30060       36.57135       19.55648
H         55.66014       35.13267       18.78602
N         54.95719       41.53375       18.70767
C         55.04998       42.91230       18.22565
C         54.91624       43.94588       19.33416
O         54.03500       43.83110       20.17369
C         53.96434       43.20994       17.16433
C         54.09076       42.34982       15.93196
C         54.57245       42.89735       14.73156
C         53.72001       40.99908       15.96415
C         54.70590       42.09674       13.59389
C         53.85228       40.19713       14.82800
C         54.35078       40.74077       13.64031
O         54.48022       39.95541       12.55256
H         54.04184       41.21471       19.05604
H         56.02635       43.08543       17.72164
H         54.09610       44.27226       16.86406
H         52.93817       43.11642       17.58454
H         54.85719       43.94071       14.67820
H         53.31623       40.57477       16.86767
H         55.08802       42.53143       12.67932
H         53.56603       39.15360       14.87215
H         54.82527       40.29315       11.71382
N         55.69011       45.07585       19.27306
C         55.54481       46.27376       20.10188
C         55.99001       46.12150       21.54544
O         55.91339       47.11713       22.25332
C         54.12029       46.87460       20.00231
C         53.77644       47.28903       18.56368
C         52.41658       47.92107       18.49412
O         52.28579       49.19672       18.08184
O         51.42345       47.28157       18.80209
H         56.38010       45.14562       18.50933
H         56.23637       47.04624       19.69404
H         54.07113       47.79284       20.62900
H         53.36283       46.16529       20.39451
H         53.79694       46.40995       17.88857
H         54.53339       48.02297       18.20870
N         56.54030       44.97696       22.04582
C         57.05590       44.89778       23.41244
C         58.57013       44.73894       23.43847
O         59.12496       44.70942       24.52949
C         56.39040       43.73501       24.17125
C         54.85374       43.78492       24.22559
C         54.31622       44.98414       24.95283
O         53.63760       44.82177       26.10267
O         54.45900       46.10505       24.49537
H         56.64257       44.14940       21.44084
H         56.85511       45.83727       23.96794
H         56.77623       43.70631       25.21505
H         56.68536       42.78847       23.67336
H         54.51876       42.87913       24.76988
H         54.42270       43.74488       23.20269
N         59.31824       44.65217       22.30076
C         60.75911       44.52772       22.34548
H         61.04507       43.60893       22.90023
H         61.16683       44.46350       21.31441
H         61.19987       45.41604       22.84664
H         58.87451       44.67781       21.37241
Ca        51.98330       46.29898       28.02537
O         50.62764       49.13169       27.46390
H         49.78836       48.82776       27.03509
H         51.17814       49.47685       26.71661
O         50.94315       46.96177       25.05519
H         51.77173       46.63209       24.62683
H         50.73636       47.80461       24.57892
O         49.15026       46.25576       28.84307
H         48.26178       46.65745       29.01099
H         49.74912       46.69356       29.49837
O         54.45833       48.42137       26.66000
H         54.91199       47.54188       26.65639
H         54.90603       48.92282       27.38671

Ca 1.0



