%chk=apoCaM-CA-Ng.loop4.water3.frame386.chk
%nprocshared=20
%mem=10GB
%nosave
#b3lyp/svp scf=(tight,noincore,xqc) Test 
#IOP(5/87=12) Density=Current Pop=(MK,readradii) iop(6/33=2) iop(6/42=6)

apoCaM-CA-Ng.loop4.water3.frame386 

   -3  1 
C         39.28780      103.65366       12.66625
C         40.30424      104.64011       12.17605
O         40.03918      105.30716       11.18810
H         38.38747      103.66373       12.01236
H         39.72056      102.63220       12.65699
H         38.97691      103.91786       13.69794
N         41.48774      104.80736       12.83945
C         42.51935      105.76002       12.43309
C         41.97665      107.17184       12.38299
O         41.89347      107.76987       11.32478
C         43.35977      105.28304       11.22028
C         42.67590      104.56528       10.08137
O         41.81499      105.13564        9.21583
O         42.96284      103.39275        9.89393
H         41.64826      104.26038       13.69902
H         43.29018      105.81380       13.23732
H         44.05925      104.52506       11.64570
H         44.00300      106.10979       10.84948
N         41.63270      107.75678       13.56685
C         41.11206      109.10142       13.79920
C         42.12143      110.18645       13.41446
O         42.70327      110.77101       14.31814
C         39.69610      109.31021       13.18972
C         39.02200      110.62161       13.68105
C         38.78093      108.09898       13.44905
C         38.61920      110.62964       15.16408
H         41.75706      107.18423       14.41774
H         40.99515      109.15978       14.90341
H         39.80461      109.38598       12.09419
H         38.09411      110.78313       13.09288
H         39.69456      111.48315       13.48239
H         39.19125      107.19034       12.96606
H         38.67986      107.88888       14.53326
H         37.77708      108.27802       13.01572
H         39.49219      110.49998       15.83343
H         38.13959      111.59926       15.41093
H         37.87516      109.83407       15.37804
N         42.35669      110.54373       12.11477
C         43.32409      111.56608       11.72946
C         42.67848      112.94145       11.56114
O         43.15597      113.84558       12.23373
C         44.15514      111.13652       10.50180
C         44.98665      109.91452       10.79508
O         44.86439      108.90342       10.12549
O         45.89811      109.94152       11.78561
H         41.81384      110.10502       11.36381
H         44.07240      111.69228       12.54612
H         44.85766      111.95551       10.23361
H         43.50433      110.95417        9.62693
N         41.62990      113.25389       10.73817
C         40.87038      112.32019        9.91281
C         39.75093      113.00329        9.12409
O         39.60126      114.21175        9.24020
H         41.35038      114.24643       10.74303
H         40.39848      111.58132       10.58343
H         41.55295      111.83582        9.20079
N         38.88003      112.33801        8.30098
C         38.83845      110.90898        7.99416
C         38.63710      110.10821        9.26323
O         39.53464      109.38062        9.65473
C         40.03131      110.46986        7.12653
C         39.69794      109.18545        6.40182
O         39.47590      109.23697        5.20256
O         39.56608      107.99172        7.01796
H         38.14671      112.90868        7.84964
H         37.96766      110.74219        7.32315
H         40.98162      110.40566        7.67596
H         40.15207      111.25313        6.34471
N         37.51088      110.22940       10.01879
C         36.32551      110.96040        9.60496
C         36.15375      112.23092       10.36861
O         36.97732      112.56230       11.21157
H         37.47618      109.75145       10.93181
H         35.44041      110.30576        9.74781
H         36.33853      111.24167        8.54049
N         35.05672      112.99521       10.11503
C         34.74028      114.18647       10.88142
C         33.80701      113.82842       12.03002
O         33.65160      114.64514       12.92717
C         34.33911      115.35798        9.95412
C         33.06607      115.17224        9.10442
C         31.80750      115.18885        9.92153
N         31.49102      116.27182       10.66889
O         31.05109      114.23281        9.88543
H         34.36649      112.64158        9.43567
H         35.66812      114.52882       11.39210
H         35.18185      115.50320        9.24239
H         34.25820      116.29172       10.54881
H         33.13118      114.24402        8.49843
H         32.99579      116.02061        8.39034
H         32.10508      117.09753       10.69261
H         30.62486      116.29804       11.21968
N         33.25734      112.57539       12.12803
C         32.66474      112.03768       13.34768
C         31.18106      111.72982       13.22179
O         30.60405      111.33650       14.22569
C         33.42899      110.73842       13.77418
C         34.91863      111.00819       14.03263
C         33.29090      109.59155       12.74675
H         33.33352      111.92795       11.33488
H         32.75805      112.78283       14.16861
H         32.98852      110.37985       14.73057
H         35.41919      110.07825       14.38052
H         35.42885      111.34659       13.10743
H         35.04168      111.78248       14.81765
H         33.78222      108.67597       13.13542
H         32.22419      109.34662       12.56197
H         33.77117      109.83575       11.77704
N         30.49575      111.86092       12.04878
C         29.07780      111.53143       11.92637
C         28.82954      110.42035       10.91944
O         27.66690      110.06880       10.75619
C         28.27107      112.77792       11.50701
C         28.37670      113.91262       12.49249
N         27.98806      113.76291       13.77968
O         28.79717      114.99320       12.11576
H         30.98467      112.19252       11.20909
H         28.67162      111.16898       12.89426
H         27.19517      112.50980       11.42609
H         28.61418      113.11781       10.50455
H         27.61640      112.86599       14.12190
H         28.05606      114.55353       14.43787
N         29.82602      109.80297       10.21430
C         29.52714      108.78528        9.20378
C         30.74961      108.02888        8.71661
O         31.86177      108.49123        8.91234
C         28.77642      109.43134        8.00700
C         29.48046      110.66964        7.46616
C         28.87863      111.93327        7.61841
C         30.72800      110.59449        6.81917
C         29.51003      113.08701        7.14323
C         31.35529      111.74816        6.33926
C         30.75161      112.99744        6.50051
O         31.37192      114.10085        6.03570
H         30.80801      110.05442       10.39941
H         28.89418      108.00850        9.68852
H         27.76997      109.72961        8.36241
H         28.60274      108.69548        7.19336
H         27.92193      112.03097        8.11564
H         31.22507      109.65202        6.67680
H         29.03343      114.04990        7.27687
H         32.31414      111.66968        5.84157
H         30.98927      114.98492        6.12928
N         30.57144      106.84479        8.04745
C         31.60160      105.95966        7.49597
C         32.42164      105.21296        8.54681
O         32.40230      103.98892        8.51030
C         32.48624      106.65887        6.44680
C         31.65514      107.08306        5.22339
C         32.52065      107.71794        4.17520
O         33.20103      108.84666        4.45113
O         32.60438      107.21890        3.06406
H         29.59801      106.53748        7.89372
H         31.07087      105.15072        6.94007
H         33.25091      105.93170        6.09126
H         33.02001      107.52429        6.89160
H         30.85935      107.79524        5.51544
H         31.15848      106.18529        4.79154
N         33.18980      105.83992        9.48278
C         34.06821      105.11863       10.39921
C         33.32639      104.15136       11.31418
O         33.99036      103.34023       11.94560
C         34.88679      106.08438       11.29571
C         35.62144      107.24033       10.58981
C         36.56470      106.79111        9.51654
O         36.14106      106.26371        8.50070
O         37.88316      107.01480        9.64846
H         33.20727      106.85313        9.50775
H         34.76691      104.52625        9.76818
H         35.63464      105.48527       11.86161
H         34.19922      106.55195       12.03388
H         36.18521      107.78869       11.37046
H         34.91010      107.96874       10.15315
N         31.97042      104.19299       11.46895
C         31.24000      103.28703       12.33249
H         30.47920      102.74512       11.73314
H         31.89834      102.53689       12.81900
H         30.72642      103.86955       13.12551
H         31.41511      104.90717       10.97775
Ca        40.72676      107.05475        8.72574
O         42.80360      108.85822        8.32676
H         42.89699      108.97797        7.34985
H         43.13653      107.94258        8.49903
O         38.93675      104.69683        7.69784
H         38.48899      104.76979        6.81783
H         38.19922      104.54767        8.34078
O         41.75724      105.96630        6.06818
H         41.76080      106.95247        5.98064
H         40.87348      105.68923        5.71801

Ca 1.0



