%chk=apoCaM-CA-Ng.loop2.water2.frame965.chk
%nprocshared=20
%mem=10GB
%nosave
#b3lyp/svp scf=(tight,noincore,xqc) Test 
#IOP(5/87=12) Density=Current Pop=(MK,readradii) iop(6/33=2) iop(6/42=6)

apoCaM-CA-Ng.loop2.water2.frame965 

   -2  1 
C         55.44366      114.40380       41.59927
C         54.52312      113.66540       42.52885
O         53.63332      114.28320       43.09486
H         56.21075      113.72781       41.16413
H         54.85617      114.84349       40.76587
H         55.96166      115.21467       42.15094
N         54.66293      112.32330       42.70538
C         53.79598      111.51612       43.55561
C         52.89675      110.67426       42.66732
O         51.69192      110.70436       42.86970
C         54.65322      110.67997       44.52746
C         53.85352      109.91380       45.55467
O         52.63351      109.96596       45.58377
O         54.50167      109.17642       46.47589
H         55.40537      111.84024       42.17713
H         53.14405      112.17000       44.17906
H         55.32003      111.37225       45.08676
H         55.28771      109.96945       43.95604
N         53.40623      109.98160       41.60431
C         52.58635      109.30338       40.59820
C         53.48144      108.80185       39.46220
O         54.21453      109.62516       38.92923
C         51.56829      110.26783       39.95644
H         54.42780      109.98895       41.46809
H         52.00242      108.50970       41.09192
H         50.98526      109.73009       39.17809
H         50.82812      110.64950       40.68462
H         52.07905      111.13507       39.48688
N         53.47257      107.53541       38.94903
C         52.61577      106.43103       39.36638
C         53.40385      105.13200       39.45369
O         54.58262      105.11548       39.12947
C         51.39783      106.33113       38.41858
C         51.73738      106.10253       36.96867
O         52.47712      106.99550       36.28364
O         51.28203      105.13410       36.38585
H         54.07194      107.37554       38.12452
H         52.21776      106.60241       40.37913
H         50.82763      107.28232       38.48077
H         50.72533      105.51912       38.77027
N         52.81282      104.00796       39.94977
C         53.50069      102.73616       40.11530
C         52.61865      101.58575       39.67088
O         52.20171      100.83209       40.53901
H         51.84570      104.07604       40.30184
H         53.68128      102.61220       41.20589
H         54.49320      102.71031       39.62116
N         52.23026      101.36340       38.38082
C         52.68536      102.11443       37.21799
C         54.11628      101.71152       36.89072
O         54.35108      100.55076       36.58182
C         51.74780      101.80269       36.02409
C         51.99670      102.59961       34.76739
N         51.23912      102.36399       33.67223
O         52.85878      103.46321       34.72904
H         51.55415      100.59765       38.22626
H         52.59743      103.19727       37.43732
H         50.70125      102.01423       36.33574
H         51.82051      100.72044       35.77881
H         50.50118      101.64477       33.68929
H         51.38991      102.89630       32.80446
N         55.13224      102.61094       36.97790
C         56.52670      102.25810       36.76586
C         56.93726      102.18340       35.30948
O         58.11115      101.93868       35.06984
H         54.92099      103.56409       37.29472
H         56.76651      101.31657       37.30647
H         57.15539      103.06017       37.21056
N         56.06957      102.44788       34.28896
C         56.48562      102.56653       32.89378
C         56.23341      104.01836       32.42206
O         56.53255      104.89463       33.46428
C         55.71771      101.55595       32.00751
C         56.07855      100.11592       32.37148
O         54.32985      101.72670       32.14987
H         55.08933      102.65292       34.50261
H         57.57805      102.37437       32.79828
H         56.00142      101.67940       30.93789
H         54.07481      102.51509       31.60352
H         55.52695       99.41329       31.71103
H         57.16768       99.94868       32.22739
H         55.81346       99.89417       33.42660
N         57.06866      104.36237       31.26400
C         56.67206      105.60395       30.56383
C         55.45412      105.34495       29.68895
O         55.50478      104.44543       28.86011
C         57.89023      106.09076       29.72037
C         57.58752      107.27654       28.76171
C         59.07452      106.42905       30.64802
C         57.16421      108.58449       29.43311
H         57.14620      103.57378       30.58139
H         56.43504      106.40698       31.29695
H         58.20689      105.24903       29.06423
H         56.79180      106.97638       28.04707
H         58.50019      107.48190       28.15927
H         59.36506      105.54734       31.25658
H         59.95976      106.73698       30.05288
H         58.81044      107.24925       31.34892
H         56.23106      108.44783       30.01253
H         57.96369      108.97290       30.09609
H         56.97863      109.34883       28.64798
N         54.33409      106.12183       29.79130
C         53.16331      105.89746       28.95169
C         52.37127      107.17801       28.71622
O         51.19122      107.23298       29.03758
C         52.31412      104.72086       29.49109
C         51.73507      104.98083       30.85520
O         50.52511      104.98242       31.01789
O         52.54456      105.19036       31.90816
H         54.32635      106.91295       30.45306
H         53.50269      105.60375       27.93265
H         52.93678      103.80256       29.54269
H         51.48749      104.52243       28.77250
N         52.94972      108.21333       28.03738
C         52.19407      109.35744       27.53391
C         52.85711      110.68793       27.89481
O         54.03550      110.84016       27.59724
C         52.14053      109.24176       25.99336
C         51.17073      110.22544       25.38461
C         51.62637      111.30423       24.60948
C         49.78830      110.05841       25.58467
C         50.71237      112.20686       24.05478
C         48.87886      110.95684       25.02109
C         49.34044      112.03232       24.25901
H         53.93634      108.11933       27.74770
H         51.14888      109.31471       27.90032
H         51.81304      108.22298       25.68986
H         53.16699      109.38482       25.58739
H         52.68574      111.45350       24.44389
H         49.41521      109.22754       26.17098
H         51.06711      113.04204       23.46528
H         47.81639      110.81821       25.17545
H         48.63450      112.72895       23.82572
N         52.16288      111.74258       28.42977
C         52.70870      113.09148       28.53237
C         53.52341      113.33589       29.79193
O         53.98299      114.45630       29.96633
C         51.44767      113.96190       28.52424
C         50.48681      113.11050       29.33094
C         50.74683      111.72537       28.74547
H         53.32688      113.35590       27.64508
H         51.58678      115.00559       28.87985
H         51.05413      114.00035       27.48203
H         50.83376      113.12289       30.38935
H         49.42305      113.42709       29.30272
H         50.47053      110.94022       29.48128
H         50.17890      111.59260       27.80198
N         53.72963      112.36525       30.72505
C         54.45002      112.61854       31.97136
C         55.92042      113.00325       31.77424
O         56.54968      113.35437       32.76334
C         54.34005      111.39679       32.91282
C         55.04769      110.17044       32.32786
C         55.01751      108.99740       33.24232
O         53.91376      108.24206       33.36570
O         56.06039      108.60390       33.73963
H         53.30246      111.44194       30.57592
H         53.94512      113.47139       32.47695
H         53.26835      111.16826       33.10210
H         54.81209      111.65075       33.88837
H         56.11205      110.42737       32.14680
H         54.61232      109.85162       31.35820
N         56.54309      112.94703       30.55871
C         57.93368      113.31155       30.35946
H         58.49206      112.43897       29.96015
H         57.99448      114.14254       29.62573
H         58.42944      113.64192       31.29674
H         56.03193      112.62426       29.72636
Ca        54.65646      106.15011       33.59771
O         50.89285      107.99650       33.81988
H         50.29420      107.45176       34.39027
H         50.73892      107.65756       32.90242
O         56.16104      105.93499       36.28179
H         55.20909      105.86771       36.54353
H         56.30603      106.90226       36.12968

Ca 1.0



