%chk=apoCaM-CA-Ng.loop3.water3.frame697.chk
%nprocshared=20
%mem=10GB
%nosave
#b3lyp/svp scf=(tight,noincore,xqc) Test 
#IOP(5/87=12) Density=Current Pop=(MK,readradii) iop(6/33=2) iop(6/42=6)

apoCaM-CA-Ng.loop3.water3.frame697 

   0  1 
C        107.18382       95.98580      -17.44793
C        108.46288       96.04363      -18.22937
O        108.75313       97.08341      -18.80391
H        106.32367       96.17271      -18.12351
H        107.04815       94.99661      -16.96242
H        107.20251       96.76507      -16.65683
N        109.29343       94.96359      -18.28301
C        110.57263       94.98760      -18.98330
C        110.34696       95.26027      -20.45913
O        109.66286       94.49063      -21.12011
C        111.34057       93.67953      -18.71475
C        112.77547       93.70057      -19.16483
O        113.51894       92.80383      -18.79914
O        113.28043       94.69893      -19.92052
H        109.01720       94.10722      -17.77737
H        111.18139       95.80316      -18.53624
H        110.81223       92.79832      -19.13870
H        111.37461       93.55981      -17.60831
N        110.85338       96.39693      -21.01838
C        110.56411       96.82485      -22.38797
C        111.16399       95.89100      -23.43487
O        110.83079       96.02345      -24.60257
C        111.08576       98.26399      -22.62062
C        110.43836       99.27908      -21.65093
C        111.04035      100.68738      -21.73958
C        110.75798      101.39667      -23.06899
N        111.29358      102.75808      -23.04442
H        111.42656       97.00380      -20.41471
H        109.45828       96.82783      -22.51544
H        110.86557       98.57022      -23.66529
H        112.18962       98.26653      -22.47725
H        110.60076       98.96018      -20.60296
H        109.34052       99.31928      -21.81930
H        112.13697      100.63421      -21.55880
H        110.58740      101.29361      -20.92468
H        109.65824      101.44102      -23.23194
H        111.21984      100.83911      -23.91142
H        110.86034      103.30177      -22.26228
H        112.33194      102.73357      -22.92011
H        111.06960      103.23301      -23.94810
N        112.07961       94.94732      -23.08517
C        112.69164       93.99555      -23.99716
C        112.40773       92.58679      -23.50058
O        111.83829       91.80445      -24.25142
C        114.20094       94.30650      -24.18748
C        115.03313       94.47349      -22.94264
O        116.11647       93.70156      -22.74691
O        114.79559       95.37614      -22.15711
H        112.37930       94.90208      -22.11144
H        112.25210       94.08054      -25.01603
H        114.28229       95.26732      -24.73991
H        114.64748       93.51434      -24.82747
N        112.74592       92.20189      -22.23801
C        112.50089       90.87748      -21.68883
C        113.78913       90.17026      -21.31502
O        113.72172       89.02420      -20.90402
H        113.20401       92.88509      -21.62560
H        111.97078       90.23627      -22.42591
H        111.85400       90.96583      -20.78958
N        115.00147       90.78084      -21.47096
C        116.28490       90.12046      -21.29259
C        117.11979       90.84394      -20.23792
O        116.75480       91.92825      -19.80934
C        116.95162       90.15411      -22.69011
C        118.31130       89.52570      -22.79399
N        119.37151       90.25953      -23.21041
O        118.45433       88.34170      -22.53218
H        115.04244       91.74743      -21.80091
H        116.13914       89.07001      -20.96261
H        117.01927       91.21426      -23.02007
H        116.28223       89.63165      -23.40860
H        119.26503       91.25669      -23.45175
H        120.30262       89.82976      -23.30473
N        118.27495       90.27883      -19.77735
C        119.19319       90.95052      -18.87203
C        118.59317       91.27446      -17.52126
O        118.23240       90.36538      -16.78787
H        118.54527       89.34636      -20.11787
H        119.55425       91.87551      -19.36902
H        120.07930       90.30014      -18.70167
N        118.48998       92.57560      -17.12537
C        118.02116       93.01504      -15.81471
C        116.67327       93.71511      -15.94828
O        116.10345       93.69596      -17.02799
C        119.08615       93.93924      -15.16491
C        120.35412       93.21514      -14.77598
C        120.62418       92.97663      -13.41471
C        121.28394       92.79135      -15.73951
C        121.79314       92.32220      -13.02573
C        122.46145       92.14436      -15.34562
C        122.71888       91.90592      -13.99032
O        123.85638       91.28063      -13.62596
H        118.76311       93.31292      -17.79359
H        117.84870       92.15547      -15.12972
H        118.67556       94.35865      -14.23020
H        119.32129       94.81280      -15.81025
H        119.92504       93.29031      -12.64870
H        121.11038       92.97498      -16.79134
H        121.97771       92.14312      -11.97362
H        123.17727       91.83114      -16.09462
H        124.06824       91.10046      -12.69846
N        116.10079       94.32837      -14.86391
C        114.78446       94.96105      -14.79485
C        114.61806       96.03469      -15.91415
O        114.17058       95.32939      -17.02547
C        113.65861       93.85794      -14.78813
C        112.23430       94.41764      -14.52511
C        113.97889       92.72144      -13.79835
C        112.04018       95.05994      -13.14589
H        116.61760       94.33509      -13.97540
H        114.75719       95.47642      -13.81123
H        113.63167       93.36621      -15.78551
H        111.50290       93.58544      -14.61814
H        111.96830       95.15495      -15.30737
H        113.17816       91.95151      -13.82958
H        114.92470       92.21283      -14.08121
H        114.08699       93.09942      -12.76241
H        112.70899       95.93112      -13.00288
H        110.99348       95.41563      -13.05025
H        112.22002       94.32495      -12.33488
N        113.60726       97.05183      -15.57156
C        113.30721       98.00792      -16.66536
C        114.21207       99.24028      -16.74843
O        114.04844       99.98112      -17.70997
C        111.85384       98.47952      -16.52755
O        110.99490       97.37510      -16.51462
H        113.76011       97.50742      -14.64524
H        113.36811       97.48764      -17.64223
H        111.59341       99.13476      -17.39114
H        111.74299       99.04822      -15.57757
H        110.07750       97.74225      -16.42959
N        115.12641       99.58551      -15.79155
C        115.87570      100.84219      -15.87410
C        116.90646      100.80616      -17.00008
O        117.16300       99.72711      -17.51609
C        116.57386      101.12288      -14.53451
H        115.24021       99.00105      -14.95373
H        115.13452      101.65074      -16.05831
H        115.81557      101.17736      -13.72417
H        117.29440      100.31218      -14.29694
H        117.12561      102.08297      -14.54439
N        117.56086      101.91607      -17.46416
C        117.30310      103.29621      -17.05662
C        118.56018      103.94543      -16.48367
O        119.63744      103.39710      -16.67087
C        116.84074      104.05985      -18.30969
H        118.26118      101.77441      -18.21059
H        116.50296      103.33857      -16.30394
H        115.92251      103.58778      -18.71821
H        116.61570      105.12403      -18.12650
H        117.63083      104.02323      -19.09132
N        118.54613      105.13258      -15.80042
C        117.34285      105.83047      -15.35409
C        116.70838      105.05682      -14.21386
O        115.55475      104.66639      -14.32624
C        117.68187      107.27596      -14.92498
C        116.41782      108.08355      -14.58443
C        116.75898      109.51149      -14.27124
O        117.56265      109.80389      -13.23118
O        116.30313      110.41521      -14.95410
H        119.45876      105.53775      -15.53583
H        116.63222      105.93703      -16.19100
H        118.18613      107.77599      -15.78196
H        118.38352      107.27900      -14.06253
H        115.89871      107.63909      -13.70893
H        115.72401      108.05803      -15.45450
N        117.42385      104.79614      -13.08214
C        116.90251      104.05127      -11.95430
H        115.85576      103.71803      -12.11254
H        117.53395      103.15339      -11.78651
H        116.93738      104.68788      -11.04549
H        118.39584      105.13298      -13.01278
Ca       114.87904       95.99042      -19.03649
O        115.96581       98.42621      -20.32733
H        115.44685       97.95261      -21.02505
H        115.30527       98.61097      -19.61380
O        118.30813       94.96135      -20.87534
H        118.44825       95.94115      -20.84816
H        118.54453       94.70449      -21.80188
O        117.85127       96.08102      -17.85428
H        117.58358       96.60313      -17.05674
H        118.44985       96.68591      -18.35938

Ca 1.0



