%chk=apoCaM-CA-Ng.loop2.water4.frame1156.chk
%nprocshared=20
%mem=10GB
%nosave
#b3lyp/svp scf=(tight,noincore,xqc) Test 
#IOP(5/87=12) Density=Current Pop=(MK,readradii) iop(6/33=2) iop(6/42=6)

apoCaM-CA-Ng.loop2.water4.frame1156 

   -2  1 
C        110.15180       53.92428       93.98757
C        109.55986       54.76703       95.08360
O        108.72735       54.25876       95.81990
H        111.25075       53.84518       94.12281
H        109.72201       52.90072       94.00443
H        109.92460       54.37945       92.99996
N        109.90449       56.07263       95.27573
C        110.87100       56.80271       94.45586
C        110.18786       57.91087       93.68137
O        109.02529       58.17988       93.93449
C        112.04378       57.32516       95.32218
C        111.67540       58.27094       96.44263
O        110.52072       58.60780       96.64480
O        112.64645       58.74823       97.24400
H        109.42554       56.57608       96.03613
H        111.30925       56.13228       93.69181
H        112.77763       57.84268       94.66800
H        112.55217       56.44892       95.77786
N        110.84984       58.53275       92.65859
C        110.32059       59.58772       91.79411
C        110.38233       60.94284       92.46909
O        111.09224       61.80192       91.96317
C        108.93408       59.26469       91.21689
H        111.79750       58.19377       92.43200
H        111.00325       59.65230       90.91492
H        108.64850       60.03954       90.47378
H        108.95937       58.28058       90.70211
H        108.14345       59.24909       91.99193
N        109.70048       61.20937       93.61833
C        109.78803       62.47597       94.32189
C        110.62227       62.33829       95.64097
O        110.32475       61.31396       96.55547
C        108.40664       63.21862       94.36584
C        107.09779       62.44159       94.19832
O        106.65732       61.54997       95.10288
O        106.38434       62.68609       93.23788
H        109.11044       60.48690       94.03909
H        110.44327       63.18088       93.76266
H        108.41677       63.89943       93.48439
H        108.36024       63.89642       95.24028
N        110.87698       63.63640       96.27966
C        111.44716       63.54704       97.63489
C        110.38109       63.65811       98.70626
O        110.74420       63.77990       99.86739
H        111.57103       64.12289       95.66522
H        112.11009       64.42916       97.78027
H        112.08295       62.64310       97.77151
N        109.05130       63.66641       98.39656
C        107.98716       63.96024       99.34733
C        107.12566       62.73465       99.56246
O        106.56623       62.22352       98.60258
C        107.10397       65.09749       98.77793
C        107.74769       66.46118       98.61732
N        108.99414       66.75522       99.06133
O        107.09355       67.33935       98.07530
H        108.75908       63.48912       97.42798
H        108.39358       64.27226      100.33295
H        106.21326       65.23385       99.42822
H        106.74247       64.77556       97.77408
H        109.57881       66.07169       99.55325
H        109.37693       67.70353       98.93301
N        106.94693       62.23344      100.82029
C        106.08928       61.09656      101.11833
C        104.94746       61.49198      102.03813
O        104.87522       62.64814      102.43105
H        107.42478       62.68656      101.61390
H        106.69979       60.30333      101.59932
H        105.64719       60.68541      100.18791
N        103.96969       60.61243      102.40998
C        103.91693       59.21350      101.99344
C        102.78545       58.99138      101.01012
O        101.95910       59.86892      100.80009
C        103.76753       58.27441      103.21559
C        105.00147       58.31847      104.12062
O        102.62103       58.63250      103.94653
H        103.19434       60.97129      102.98977
H        104.83951       58.93271      101.44775
H        103.66023       57.22870      102.84470
H        102.40557       57.87052      104.54527
H        105.16499       59.33891      104.52454
H        104.86542       57.61532      104.97061
H        105.90003       58.00041      103.55010
N        102.75365       57.82797      100.30507
C        101.75711       57.52930       99.28490
C        100.45619       57.14347       99.98649
O        100.50419       56.18272      100.74179
C        102.25309       56.35198       98.38468
C        103.58476       56.73427       97.67405
C        101.17478       55.97375       97.34749
C        104.25135       55.56170       96.95323
H        103.51135       57.14824      100.47187
H        101.67458       58.39947       98.60992
H        102.44017       55.46945       99.03658
H        104.32956       57.08780       98.41599
H        103.40802       57.56477       96.95630
H        101.49238       55.11660       96.72329
H        100.23307       55.66531       97.84526
H        100.94923       56.83687       96.69085
H        103.62420       55.17007       96.12979
H        105.21208       55.89961       96.51193
H        104.46681       54.74636       97.67696
N         99.24888       57.76515       99.82095
C         98.95332       58.93246       98.99503
C         97.94369       58.59221       97.90986
O         97.45187       57.46952       97.86839
C         98.41640       60.06193       99.90969
C         97.16487       59.67567      100.66302
O         97.17524       59.63617      102.00921
O         96.13743       59.40107      100.06352
H         98.45404       57.36384      100.34519
H         99.85061       59.31750       98.48576
H         98.20454       60.97672       99.31743
H         99.20702       60.31686      100.64770
N         97.57656       59.53519       96.99631
C         96.51610       59.33078       96.01335
C         96.42431       60.53453       95.07281
O         96.34715       61.65105       95.58052
C         95.14945       59.19026       96.73813
C         94.03639       58.93021       95.75109
C         93.13158       59.95137       95.41538
C         93.91646       57.67433       95.13087
C         92.14052       59.72670       94.45566
C         92.92000       57.45241       94.17524
C         92.03651       58.47967       93.83386
H         98.06207       60.44722       97.02260
H         96.73310       58.40385       95.44201
H         94.96194       60.13912       97.28865
H         95.14387       58.37739       97.49333
H         93.21020       60.92853       95.87517
H         94.60537       56.87500       95.37542
H         91.45901       60.52324       94.18712
H         92.83981       56.48753       93.69150
H         91.27313       58.31057       93.08564
N         96.33569       60.42402       93.71193
C         96.24309       59.17448       92.96843
C         97.58299       58.53771       92.67103
O         97.56719       57.46053       92.08550
C         95.51348       59.59620       91.68921
C         96.09604       60.97352       91.44276
C         96.08582       61.56260       92.84992
H         95.61861       58.42937       93.47716
H         95.58134       58.87986       90.84233
H         94.43495       59.73972       91.93460
H         97.15291       60.83702       91.12122
H         95.56756       61.59024       90.68520
H         96.85158       62.36253       92.94539
H         95.07932       61.96817       93.10234
N         98.77440       59.11034       93.00666
C        100.04746       58.47676       92.67706
C        100.14850       58.30639       91.16146
O        100.18207       59.32434       90.48340
C        101.24406       59.31979       93.17150
C        101.33976       59.36077       94.70307
C        102.48300       60.22552       95.14878
O        103.62243       59.97577       94.79027
O        102.25555       61.28086       95.95344
H         98.77818       60.02430       93.48526
H        100.09603       57.51443       93.20864
H        101.16276       60.35241       92.76377
H        102.18597       58.86611       92.78850
H        101.50608       58.33054       95.07680
H        100.39939       59.75168       95.14520
N        100.18114       57.10030       90.51389
C        100.08856       55.77749       91.10843
H         99.20283       55.25594       90.68750
H        100.99596       55.19395       90.85128
H         99.97502       55.75945       92.20184
H        100.25475       57.11600       89.48474
Ca       108.16410       60.86991       96.51424
O        108.63770       59.53483       99.42447
H        109.35204       58.84942       99.42532
H        108.93780       60.20427      100.08892
O        107.47069       56.95086       98.05401
H        107.87379       56.77712       98.94131
H        107.48182       56.06961       97.60371
O        106.23876       58.10217       94.57066
H        106.24230       58.40125       93.62677
H        105.29756       57.85406       94.74853
O        105.31331       59.68516       97.73877
H        104.61904       60.38926       97.78925
H        105.22990       59.32135       96.82340

Ca 1.0



