%chk=apoCaM-CA-Ng.loop2.water4.frame742.chk
%nprocshared=20
%mem=10GB
%nosave
#b3lyp/svp scf=(tight,noincore,xqc) Test 
#IOP(5/87=12) Density=Current Pop=(MK,readradii) iop(6/33=2) iop(6/42=6)

apoCaM-CA-Ng.loop2.water4.frame742 

   -2  1 
C         80.98062       25.89112       -7.05482
C         81.38701       26.45104       -8.38173
O         80.51915       26.78091       -9.17817
H         79.87330       25.83401       -6.97845
H         81.40112       24.87121       -6.93493
H         81.36228       26.54778       -6.24603
N         82.70690       26.57346       -8.69960
C         83.14424       27.11686       -9.97728
C         82.76370       28.58571      -10.04423
O         83.34462       29.37958       -9.31667
C         84.66803       26.91735      -10.14848
C         85.17120       27.37821      -11.48722
O         84.74717       26.86989      -12.51282
O         86.11671       28.33456      -11.55936
H         83.41031       26.24625       -8.01870
H         82.63533       26.53991      -10.78225
H         84.90431       25.83532      -10.04841
H         85.21010       27.45912       -9.34190
N         81.74803       29.00291      -10.85396
C         81.31416       30.39459      -10.94776
C         79.90259       30.55548      -10.39280
O         79.23418       29.54695      -10.20885
C         81.34674       30.79572      -12.42670
H         81.23609       28.29741      -11.40666
H         82.00277       31.03845      -10.37211
H         82.37109       30.66270      -12.83046
H         80.65082       30.14770      -13.00427
H         81.04396       31.84188      -12.59950
N         79.33427       31.76724      -10.09947
C         80.02024       33.06583      -10.10991
C         81.12834       33.12490       -9.06477
O         81.23505       32.23411       -8.23224
C         79.03763       34.25447       -9.89375
C         78.22486       34.15503       -8.62944
O         78.43986       34.98037       -7.59497
O         77.33672       33.32556       -8.53181
H         78.34568       31.73274       -9.82514
H         80.48104       33.22437      -11.09895
H         78.33385       34.33611      -10.74907
H         79.62237       35.19921       -9.87017
N         82.01074       34.16624       -9.06956
C         83.09768       34.29768       -8.11353
C         84.12233       33.18069       -8.22455
O         83.97688       32.31655       -9.07639
H         81.90821       34.90915       -9.77719
H         82.67026       34.31759       -7.08872
H         83.61975       35.26145       -8.30004
N         85.20781       33.10689       -7.40092
C         85.52588       34.08139       -6.36195
C         85.49284       33.42876       -4.99201
O         85.34388       32.21768       -4.89674
C         86.92474       34.67327       -6.64029
C         86.99178       35.33415       -7.99640
N         87.83804       34.87593       -8.94998
O         86.27411       36.29351       -8.23599
H         85.85527       32.31099       -7.52246
H         84.78738       34.90634       -6.34283
H         87.67633       33.85409       -6.58621
H         87.19115       35.42729       -5.86935
H         88.45118       34.06676       -8.77256
H         87.87876       35.32895       -9.87520
N         85.62737       34.19603       -3.87432
C         85.71450       33.65326       -2.52993
C         84.63499       34.15386       -1.59348
O         84.79579       33.93090       -0.40174
H         85.71824       35.21842       -3.97865
H         86.69522       33.98184       -2.12233
H         85.70752       32.54229       -2.51447
N         83.51014       34.80748       -2.02217
C         82.52428       35.35700       -1.08831
C         81.20653       34.59674       -1.14466
O         80.52759       34.61621       -2.16141
C         82.30539       36.86639       -1.34497
C         83.58653       37.67031       -1.11848
O         81.86024       37.08742       -2.66126
H         83.34466       34.92490       -3.03304
H         82.90059       35.26727       -0.04662
H         81.55723       37.24868       -0.60837
H         80.87762       37.22440       -2.62611
H         84.38308       37.35220       -1.82407
H         83.38275       38.75045       -1.27851
H         83.94751       37.53155       -0.07711
N         80.79084       33.89467       -0.04946
C         79.51613       33.18738        0.03327
C         78.39038       34.19366        0.20368
O         78.38905       34.91760        1.18979
C         79.51205       32.20181        1.25016
C         78.11789       31.53568        1.44335
C         80.60483       31.12884        1.06190
C         78.01233       30.68396        2.70937
H         81.41823       33.85691        0.76792
H         79.36842       32.57410       -0.88508
H         79.74058       32.78707        2.16947
H         77.85765       30.92023        0.55544
H         77.34269       32.32193        1.55628
H         80.67751       30.46831        1.94786
H         80.38734       30.50774        0.16680
H         81.60587       31.58729        0.93327
H         76.97371       30.30396        2.80999
H         78.68858       29.80790        2.67428
H         78.24742       31.30088        3.60350
N         77.36136       34.23523       -0.68555
C         76.15652       35.03530       -0.48546
C         74.90285       34.15932       -0.42114
O         73.82060       34.73009       -0.37496
C         76.06105       36.14667       -1.54866
C         76.09448       35.66526       -2.96333
O         77.06763       36.11330       -3.77697
O         75.23793       34.90821       -3.39179
H         77.40858       33.63913       -1.52361
H         76.19113       35.57598        0.48544
H         76.92185       36.83568       -1.40258
H         75.13383       36.73894       -1.38951
N         74.95568       32.78928       -0.36746
C         73.77334       31.92955       -0.25402
C         74.17662       30.45617       -0.25084
O         74.94110       30.06607        0.62488
C         72.94768       32.22279        1.03511
C         71.68782       31.37412        1.10966
C         70.43541       31.93903        0.80676
C         71.74611       30.01234        1.46901
C         69.27705       31.15494        0.84065
C         70.58674       29.23439        1.50384
C         69.35332       29.80354        1.18556
H         75.87458       32.32497       -0.40518
H         73.11170       32.15339       -1.11511
H         72.63393       33.28282        1.02424
H         73.55161       32.08487        1.95821
H         70.35521       32.98160        0.52634
H         72.68488       29.54442        1.72751
H         68.31930       31.59415        0.59421
H         70.64670       28.18832        1.77631
H         68.45699       29.19734        1.20850
N         73.64144       29.55094       -1.12887
C         73.81114       28.10689       -1.02097
C         75.13308       27.59346       -1.57575
O         75.24102       26.38779       -1.75020
C         72.60196       27.57280       -1.80232
C         72.47332       28.58068       -2.91758
C         72.67739       29.88837       -2.16268
H         73.69825       27.73476        0.02217
H         72.66017       26.50697       -2.11014
H         71.69662       27.68870       -1.16006
H         73.33300       28.42351       -3.60703
H         71.52872       28.53175       -3.50001
H         73.04178       30.66579       -2.86715
H         71.73582       30.21736       -1.66889
N         76.20013       28.41225       -1.81816
C         77.48413       27.90615       -2.29552
C         77.99891       26.84867       -1.33489
O         78.21303       25.72227       -1.76292
C         78.54181       29.03001       -2.42478
C         78.38755       29.98922       -3.62219
C         77.16313       30.86372       -3.62560
O         75.94074       30.33678       -3.82501
O         77.28304       32.07493       -3.54162
H         76.12119       29.41309       -1.60853
H         77.35520       27.43543       -3.29656
H         79.52602       28.53546       -2.58863
H         78.61445       29.60410       -1.47605
H         78.41578       29.41204       -4.57089
H         79.28271       30.65094       -3.60724
N         78.19289       27.13667       -0.01745
C         78.64829       26.15950        0.95121
H         79.59357       26.51094        1.41312
H         77.87915       26.04325        1.74328
H         78.82980       25.16210        0.49693
H         77.99366       28.08853        0.32511
Ca        77.22821       34.36496       -5.79972
O         74.82962       35.90236       -6.99029
H         75.05119       35.50266       -7.86879
H         75.60044       36.48871       -6.78351
O         74.75270       32.32865       -6.38009
H         75.16965       31.43625       -6.48058
H         74.61437       32.64340       -7.30872
O         80.15564       33.89698       -5.13606
H         80.04768       34.86112       -4.93687
H         81.13414       33.76452       -5.20084
O         78.19942       31.40386       -6.51579
H         77.76669       30.97584       -7.29613
H         79.12112       31.59979       -6.81592

Ca 1.0



