%chk=apoCaM-CA-Ng.loop3.water5.frame284.chk
%nprocshared=20
%mem=10GB
%nosave
#b3lyp/svp scf=(tight,noincore,xqc) Test 
#IOP(5/87=12) Density=Current Pop=(MK,readradii) iop(6/33=2) iop(6/42=6)

apoCaM-CA-Ng.loop3.water5.frame284 

   0  1 
C         38.72598       31.95968       14.20926
C         38.72316       30.84638       13.20541
O         37.82935       30.79627       12.37400
H         39.66007       32.55049       14.11091
H         37.85572       32.63325       14.05582
H         38.66880       31.53289       15.23315
N         39.70485       29.89862       13.24163
C         39.79861       28.75736       12.33315
C         38.63402       27.77101       12.51223
O         38.53724       26.82772       11.74017
C         39.96849       29.25062       10.87111
C         40.50634       28.19894        9.92337
O         40.71249       28.48810        8.75683
O         40.82388       26.96097       10.34947
H         40.44196       29.99210       13.95758
H         40.73390       28.21289       12.59262
H         40.71370       30.07618       10.86350
H         39.00616       29.64990       10.48553
N         37.73805       27.88663       13.54138
C         36.63607       26.94507       13.74150
C         35.55285       27.09034       12.67650
O         34.64536       26.26942       12.65786
C         35.96193       27.17007       15.11778
C         36.88959       27.03227       16.33922
C         37.42626       25.60963       16.54259
C         38.27711       25.53882       17.81894
N         38.75849       24.17936       18.05756
H         37.86311       28.63596       14.23268
H         37.04538       25.91214       13.70258
H         35.11815       26.45577       15.24446
H         35.53900       28.19928       15.12890
H         36.29136       27.30582       17.23583
H         37.73537       27.74758       16.27237
H         38.04997       25.30405       15.67623
H         36.56853       24.90800       16.63564
H         37.66782       25.86512       18.69149
H         39.14692       26.22672       17.72286
H         39.33631       24.17085       18.92911
H         37.94811       23.53020       18.18415
H         39.34795       23.85885       17.25557
N         35.53993       28.13664       11.79962
C         34.47821       28.34835       10.81950
C         34.41055       27.19285        9.82767
O         35.37158       26.44616        9.69650
C         34.70768       29.72788       10.14076
C         33.82452       30.02375        8.96914
O         33.95804       29.36983        7.95451
O         32.95029       31.04215        8.94892
H         36.28585       28.84106       11.85674
H         33.50792       28.38278       11.36353
H         35.75203       29.78062        9.75934
H         34.58708       30.51868       10.91270
N         33.25896       26.95880        9.12934
C         33.12337       25.87465        8.17193
C         34.00743       26.12056        6.97518
O         34.93268       25.35612        6.74216
H         32.43643       27.55780        9.30093
H         32.07073       25.81104        7.81790
H         33.37282       24.91409        8.67331
N         33.76592       27.18949        6.16287
C         34.58871       27.53051        5.00301
C         35.97437       28.08606        5.38557
O         36.72902       28.43208        4.48800
C         33.81544       28.51742        4.08873
C         33.65986       29.92917        4.68823
N         34.44991       30.90600        3.94514
O         32.32047       30.33668        4.71795
H         32.92410       27.75443        6.35621
H         34.71691       26.60763        4.39447
H         32.81435       28.07890        3.87630
H         34.32828       28.58868        3.10403
H         35.45911       30.64339        3.99255
H         34.34530       31.83700        4.40495
N         36.38167       28.19544        6.68661
C         37.64902       28.76534        7.12309
C         37.67590       30.27692        7.02557
O         36.76205       30.86862        6.47230
H         35.78380       27.84221        7.43841
H         38.50631       28.29279        6.59845
H         37.75213       28.54124        8.20814
N         38.69047       30.97411        7.61909
C         38.74105       32.43393        7.68725
C         37.55459       33.01820        8.44214
O         36.76200       32.29668        9.03118
C         40.02297       32.90812        8.42582
C         41.29447       32.77176        7.63418
C         42.35262       31.97366        8.09661
C         41.45716       33.51368        6.45178
C         43.55758       31.92411        7.38668
C         42.66118       33.46511        5.74677
C         43.71850       32.67283        6.21467
O         44.89304       32.63260        5.55396
H         39.44513       30.44111        8.06820
H         38.71140       32.84330        6.65386
H         40.08710       32.37788        9.40279
H         39.96490       33.99125        8.66102
H         42.25350       31.40478        9.01267
H         40.65960       34.15030        6.08852
H         44.37270       31.31493        7.75601
H         42.77461       34.05469        4.84558
H         45.04948       33.15286        4.75262
N         37.39651       34.37145        8.43771
C         36.33524       35.10038        9.11728
C         35.43338       35.71190        8.05703
O         34.22848       35.52521        8.14357
C         36.94344       36.15635       10.08822
C         37.86903       35.45183       11.12065
C         35.82111       36.93210       10.81004
C         38.57358       36.40432       12.08979
H         38.07634       34.92828        7.89934
H         35.71348       34.41046        9.73314
H         37.54916       36.87849        9.49610
H         38.66792       34.90261       10.58015
H         37.28377       34.71238       11.71059
H         36.23554       37.73800       11.44793
H         35.14616       37.42864       10.08933
H         35.21282       36.24717       11.43819
H         39.24680       35.81968       12.75236
H         39.18188       37.14571       11.53035
H         37.84977       36.93290       12.74202
N         35.94097       36.37483        6.97374
C         35.08493       36.80285        5.87131
C         34.18257       37.96140        6.24775
O         33.29554       38.27158        5.46526
C         35.91812       37.16320        4.63426
O         36.66259       36.04246        4.23001
H         36.96007       36.49036        6.88116
H         34.44350       35.93769        5.58617
H         36.57889       38.02921        4.87549
H         35.25174       37.45880        3.79477
H         37.59773       36.34068        4.08736
N         34.33250       38.64092        7.42446
C         33.44774       39.70932        7.86131
C         32.03567       39.17151        7.98093
O         31.13222       39.67259        7.32356
C         33.56370       40.93211        6.93608
H         35.09693       38.38954        8.06290
H         33.77031       40.04557        8.87243
H         34.61752       41.28275        6.91000
H         33.24235       40.70392        5.89978
H         32.93145       41.75946        7.32277
N         31.78160       38.12829        8.82279
C         30.45104       37.54053        8.96611
C         30.35725       36.58494       10.14578
O         31.36383       36.27344       10.76923
C         30.06189       36.79734        7.67823
H         32.56652       37.77352        9.39059
H         29.73488       38.36553        9.17498
H         30.78335       35.97280        7.49012
H         29.04320       36.36541        7.75847
H         30.07215       37.47345        6.80020
N         29.13082       36.12796       10.54631
C         28.91197       35.24802       11.69330
C         29.35817       35.87462       13.01493
O         29.30692       35.18299       14.02281
C         29.55399       33.86026       11.45332
C         28.91730       33.16483       10.23678
C         29.50711       31.80485       10.00241
O         30.02966       31.54155        8.93212
O         29.43769       30.85914       10.95878
H         28.29597       36.43356       10.02338
H         27.81947       35.06590       11.80362
H         29.37441       33.21763       12.34332
H         30.65044       33.95019       11.32403
H         29.05695       33.78788        9.32637
H         27.82647       33.04302       10.41400
N         29.75246       37.18114       13.10836
C         30.17092       37.80562       14.34658
H         31.20029       38.20318       14.22425
H         29.48751       38.64903       14.57958
H         30.16697       37.10067       15.20335
H         29.74125       37.79338       12.28275
Ca        32.17236       31.18431        6.83073
O         29.67419       31.91318        5.05625
H         29.69714       31.07983        4.52211
H         28.97918       31.74915        5.74188
O         34.57492       33.03887        6.93095
H         35.16848       33.29065        6.18033
H         34.67533       32.06065        7.01797
O         32.10862       33.82870        9.24780
H         32.29144       33.75341        8.27910
H         32.99239       33.73360        9.68412
O         30.42480       28.82626        7.28851
H         30.05533       29.15554        6.43077
H         30.02215       27.93002        7.40595
O         32.17822       34.19579        5.59474
H         31.19214       34.28093        5.58809
H         32.40308       33.81775        4.70791

Ca 1.0



