%chk=apoCaM-CA-Ng.loop3.water6.frame1123.chk
%nprocshared=20
%mem=10GB
%nosave
#b3lyp/svp scf=(tight,noincore,xqc) Test 
#IOP(5/87=12) Density=Current Pop=(MK,readradii) iop(6/33=2) iop(6/42=6)

apoCaM-CA-Ng.loop3.water6.frame1123 

   0  1 
C         59.28844       80.01858       78.31863
C         59.44899       80.13599       79.80485
O         58.49503       79.89980       80.53193
H         59.48399       81.00395       77.84647
H         60.01377       79.27564       77.92361
H         58.26152       79.68820       78.05475
N         60.65913       80.47802       80.32515
C         60.92207       80.59511       81.75495
C         61.49406       81.96156       82.12963
O         61.82427       82.14237       83.29307
C         61.82438       79.43045       82.21705
C         63.19982       79.40234       81.61654
O         64.27667       79.46116       82.42204
O         63.35329       79.26664       80.41352
H         61.44024       80.63021       79.66938
H         59.97912       80.47521       82.33423
H         61.31967       78.47279       81.96632
H         61.92287       79.47873       83.32396
N         61.60203       82.98686       81.22131
C         62.12829       84.32517       81.52152
C         61.27041       85.10345       82.52868
O         61.65702       86.19425       82.92434
C         63.60452       84.24241       81.98286
C         64.44355       83.35960       81.04146
C         65.93431       83.40205       81.39924
C         66.78221       82.43831       80.54747
N         66.48984       81.03403       80.84367
H         61.30515       82.83257       80.24893
H         62.12443       84.91350       80.57697
H         63.67680       83.82417       83.01022
H         64.02048       85.27402       82.00731
H         64.31941       83.69574       79.98916
H         64.06670       82.32185       81.13060
H         66.08565       83.15859       82.47306
H         66.29584       84.43867       81.22282
H         67.85265       82.62675       80.78015
H         66.62581       82.63780       79.46389
H         66.60171       80.85061       81.86786
H         65.52585       80.78579       80.53544
H         67.15852       80.42407       80.32125
N         60.10499       84.58294       83.00073
C         59.29885       85.14470       84.07827
C         58.44989       84.00278       84.60748
O         57.22732       84.03636       84.57331
C         58.51017       86.39938       83.63025
C         57.57461       86.19848       82.46382
O         56.83914       87.23788       82.02592
O         57.47187       85.11760       81.90666
H         59.79220       83.67850       82.62857
H         59.96105       85.43705       84.92426
H         59.23053       87.19755       83.35326
H         57.91655       86.76696       84.49580
N         59.10986       82.89627       85.05035
C         58.44752       81.65629       85.39793
C         59.45294       80.63683       85.92125
O         60.35988       81.04855       86.63167
H         60.13983       82.93812       85.09107
H         57.92865       81.31266       84.48477
H         57.70246       81.84667       86.19680
N         59.35336       79.28639       85.73480
C         58.30487       78.58358       84.99871
C         58.92689       77.66778       83.94743
O         60.11661       77.39810       84.03436
C         57.46535       77.79358       86.02042
C         56.77200       78.75219       86.96017
N         57.07827       78.78287       88.27764
O         55.93348       79.52403       86.51794
H         60.05962       78.69840       86.20783
H         57.64171       79.28544       84.47596
H         58.13785       77.10897       86.58344
H         56.69038       77.17059       85.53739
H         57.79357       78.15477       88.67081
H         56.60921       79.45325       88.90510
N         58.22759       77.16908       82.88478
C         56.82913       77.46624       82.61449
C         56.38353       76.84025       81.31393
O         56.44756       75.62419       81.18977
H         58.74433       76.57981       82.21119
H         56.69740       78.56701       82.55319
H         56.18686       77.07214       83.42313
N         55.94406       77.62277       80.28611
C         55.55491       77.08706       78.98114
C         55.40663       78.20416       77.94439
O         55.32584       79.37458       78.29805
C         54.24667       76.25388       79.10469
C         53.81666       75.58487       77.81819
C         52.59644       75.92904       77.21000
C         54.62960       74.60922       77.21470
C         52.20502       75.32030       76.01323
C         54.23792       74.00479       76.01554
C         53.02455       74.36117       75.40902
O         52.64162       73.79825       74.24513
H         55.94854       78.64276       80.43548
H         56.39873       76.44967       78.63477
H         53.44564       76.93526       79.46761
H         54.36299       75.45431       79.86462
H         51.94975       76.67443       77.65562
H         55.57050       74.32416       77.66769
H         51.26752       75.60146       75.54987
H         54.88023       73.26408       75.55630
H         53.19014       73.14895       73.78214
N         55.44635       77.90230       76.61740
C         55.41518       78.91076       75.55676
C         54.09203       79.67008       75.55216
O         53.12923       79.18410       76.12971
C         55.71961       78.21883       74.18556
C         54.57158       77.26172       73.75970
C         56.04491       79.22641       73.07192
C         54.96353       76.29281       72.64395
H         55.59430       76.91705       76.36029
H         56.23860       79.62357       75.78578
H         56.64450       77.62030       74.35020
H         53.67687       77.84813       73.45652
H         54.27575       76.63088       74.61535
H         56.86269       79.90255       73.39941
H         56.39797       78.70379       72.16036
H         55.15516       79.82603       72.79517
H         55.81522       75.66087       72.97678
H         54.10463       75.62504       72.41954
H         55.23872       76.82339       71.71208
N         53.98085       80.87944       74.92397
C         52.72028       81.61199       74.82595
C         52.77132       82.93906       75.56344
O         53.82000       83.33610       76.04303
C         52.36332       81.81600       73.34398
O         53.35671       82.55283       72.67961
H         54.81948       81.29772       74.49557
H         51.90217       81.02424       75.29555
H         51.37185       82.30974       73.22811
H         52.27605       80.82498       72.85000
H         53.16038       83.51237       72.84058
N         51.61901       83.65489       75.71472
C         51.47469       84.90431       76.45403
C         52.22651       86.05463       75.81062
O         52.97361       86.74716       76.48802
C         51.82290       84.71249       77.94020
H         50.75527       83.26745       75.30628
H         50.39947       85.18700       76.41011
H         51.20740       83.89588       78.37212
H         52.89448       84.46271       78.08090
H         51.60703       85.64381       78.50467
N         52.03934       86.33591       74.48884
C         52.61269       87.49024       73.80329
C         54.11183       87.57570       74.02420
O         54.60371       88.59230       74.49690
C         51.88844       88.76979       74.24638
H         51.44887       85.70005       73.93061
H         52.42320       87.37434       72.71284
H         50.80032       88.67304       74.04577
H         52.03409       88.95644       75.33130
H         52.27085       89.64358       73.67643
N         54.89438       86.50442       73.73463
C         56.32654       86.46731       73.99044
C         57.06810       86.24921       72.68412
O         57.96234       87.02819       72.38214
C         56.61132       85.39956       75.07005
C         58.08218       85.35271       75.52495
C         58.58076       86.67402       76.06040
O         58.08149       87.22340       77.18695
O         59.47064       87.26153       75.46733
H         54.43989       85.65877       73.35904
H         56.67112       87.43515       74.41526
H         56.30959       84.39555       74.69935
H         55.98419       85.63594       75.95708
H         58.70389       85.05299       74.65472
H         58.20338       84.57952       76.31390
N         56.71405       85.25390       71.82283
C         57.35877       85.08993       70.53689
H         58.42856       84.83128       70.67697
H         56.86154       84.27963       69.96213
H         57.27885       86.03047       69.94821
H         55.93680       84.61938       72.05647
Ca        56.64577       86.24092       78.62138
O         55.93871       83.37837       78.05732
H         55.38009       84.15942       77.81997
H         55.59627       83.09907       78.94230
O         59.11665       87.84676       80.04445
H         59.94298       87.40852       80.36876
H         59.41864       88.43845       79.31036
O         54.57387       84.70771       81.09021
H         54.76942       83.92858       81.66903
H         53.61570       84.61325       80.85968
O         56.25526       89.33901       79.17889
H         55.83959       89.42136       78.28383
H         57.06816       89.90159       79.12853
O         58.80141       84.18802       79.19665
H         58.88464       83.69317       80.04983
H         59.71452       84.18572       78.81482
O         53.97694       87.32620       79.68213
H         54.16088       87.28240       78.71106
H         52.99273       87.25342       79.75011

Ca 1.0



