%chk=apoCaM-CA-Ng.loop1.water4.frame694.chk
%nprocshared=20
%mem=10GB
%nosave
#b3lyp/svp scf=(tight,noincore,xqc) Test 
#IOP(5/87=12) Density=Current Pop=(MK,readradii) iop(6/33=2) iop(6/42=6)

apoCaM-CA-Ng.loop1.water4.frame694 

   0  1 
C         47.98896       62.56645       83.73891
C         47.54314       63.21036       85.01665
O         46.38246       63.58100       85.12160
H         49.05478       62.25817       83.79450
H         47.37106       61.66572       83.54645
H         47.87235       63.28290       82.89909
N         48.42552       63.39012       86.03589
C         48.05308       64.00395       87.30337
C         49.22205       64.73638       87.94956
O         50.35828       64.61258       87.51133
C         47.36969       62.97585       88.22729
C         48.01120       61.59440       88.15616
O         49.33752       61.33868       88.39763
O         47.27885       60.65150       87.90407
H         49.40046       63.08325       85.90069
H         47.34173       64.83557       87.09742
H         46.32123       62.83640       87.86150
H         47.26779       63.36924       89.26485
N         48.96240       65.61930       88.95646
C         49.93400       66.55550       89.51280
C         50.22166       66.21906       90.96084
O         49.30994       66.10734       91.77019
C         49.39933       67.99450       89.33416
C         50.04747       69.03518       90.26652
C         49.43646       70.42306       90.01522
C         49.75639       71.44982       91.11431
N         49.10004       71.12216       92.38686
H         47.99184       65.68880       89.30681
H         50.89818       66.50792       88.96093
H         48.31469       68.00697       89.57346
H         49.52117       68.28475       88.26559
H         51.15450       69.07188       90.15618
H         49.81348       68.71659       91.29903
H         48.32979       70.35107       89.94649
H         49.82056       70.79003       89.03845
H         49.37522       72.43845       90.77697
H         50.85200       71.54014       91.25065
H         48.06299       71.07378       92.25162
H         49.44252       70.21961       92.78266
H         49.30757       71.87259       93.08375
N         51.52170       66.04533       91.32953
C         51.97216       65.63226       92.65085
C         53.22199       66.41797       93.05071
O         53.91041       66.89097       92.15764
C         52.28850       64.11791       92.52884
C         53.32781       63.83091       91.44420
O         53.04868       63.30538       90.17743
O         54.47434       64.19881       91.63232
H         52.24070       66.12214       90.59252
H         51.16751       65.79677       93.40258
H         51.33991       63.61721       92.27247
H         52.62775       63.70718       93.50399
N         53.67602       66.54755       94.33000
C         52.98879       66.16493       95.55190
C         52.10265       67.28325       96.06853
O         51.83844       68.23023       95.34597
H         54.59511       66.99697       94.45114
H         53.77554       66.03207       96.32670
H         52.45876       65.19519       95.46109
N         51.62028       67.23977       97.34384
C         50.77527       68.28585       97.92614
C         51.51032       69.61435       98.04298
O         51.03871       70.60003       97.49183
C         50.24456       67.86019       99.31150
C         49.40502       66.61531       99.21302
O         49.73110       65.52019       99.92622
O         48.42051       66.59335       98.49004
H         51.85932       66.41733       97.91935
H         49.88653       68.43299       97.27298
H         49.60454       68.67221       99.72052
H         51.08409       67.68944      100.02143
N         52.66978       69.71983       98.75391
C         53.41227       70.96493       98.91038
C         54.08845       71.44881       97.64791
O         54.84316       72.40731       97.74362
H         53.04273       68.88270       99.22733
H         54.24294       70.77622       99.62713
H         52.76477       71.75843       99.33826
N         53.94631       70.80491       96.45578
C         54.80373       71.07116       95.31957
C         55.67923       69.85424       95.11094
O         55.48867       68.82960       95.75301
C         54.00560       71.51091       94.05370
C         52.94016       70.51454       93.59172
O         53.36869       72.73854       94.29547
H         53.30912       70.00829       96.36599
H         55.51202       71.89481       95.55018
H         54.71204       71.63547       93.20050
H         54.08448       73.41556       94.42510
H         52.48467       70.87698       92.64876
H         53.37353       69.51256       93.39703
H         52.12571       70.44801       94.34083
N         56.71247       69.93221       94.24684
C         57.62512       68.83285       93.97633
C         58.47668       68.50451       95.20153
O         58.65324       67.33027       95.49731
C         58.48281       69.16904       92.72070
C         57.60247       69.58001       91.49566
C         59.39188       67.98746       92.34284
C         56.47490       68.60255       91.15335
H         56.84804       70.82920       93.76227
H         57.03803       67.92421       93.71308
H         59.14373       70.03574       92.94493
H         58.25456       69.71944       90.60880
H         57.12197       70.56412       91.67118
H         59.96839       68.23054       91.42468
H         60.12323       67.78403       93.15267
H         58.79964       67.06652       92.15988
H         56.86431       67.58627       90.94662
H         55.74456       68.56254       91.98645
H         55.92493       68.96552       90.26052
N         59.01556       69.49454       95.97112
C         59.87905       69.24258       97.12691
C         60.99468       70.27679       97.22343
O         61.02584       71.24091       96.47086
C         59.07402       69.20153       98.45782
C         58.15881       70.41242       98.64727
O         58.30473       68.02784       98.51446
H         58.77348       70.47091       95.74579
H         60.39186       68.26087       97.00601
H         59.80535       69.19154       99.30130
H         58.32926       67.70820       99.45700
H         58.72801       71.36035       98.54813
H         57.34076       70.39206       97.89525
H         57.70290       70.37549       99.66008
N         61.96143       70.10027       98.16605
C         63.06569       71.01014       98.42197
C         64.35164       70.28417       98.07533
O         65.10038       70.75713       97.23115
C         63.00460       71.47528       99.91107
C         64.14409       72.43056      100.28246
O         63.02846       70.37119      100.78090
H         61.92111       69.24596       98.74032
H         62.99047       71.91889       97.78129
H         62.03606       72.01184      100.04362
H         62.67766       70.67188      101.65898
H         65.13072       71.93495      100.16172
H         64.10779       73.34266       99.65237
H         64.04049       72.73513      101.34716
N         64.66163       69.11719       98.70479
C         65.87478       68.35511       98.48193
C         65.54826       66.87647       98.52465
O         64.82969       66.44793       99.42005
C         66.85863       68.69055       99.59903
C         68.24036       68.06926       99.35287
C         69.16814       68.43922      100.50677
C         70.61989       68.05066      100.22375
N         71.45602       68.35820      101.38294
H         64.03341       68.77386       99.44106
H         66.35668       68.64259       97.51900
H         66.44301       68.36739      100.57848
H         66.98859       69.79598       99.61925
H         68.64164       68.46867       98.39455
H         68.18049       66.96052       99.27441
H         68.80449       67.92951      101.42602
H         69.13777       69.53872      100.66898
H         70.98083       68.62789       99.34184
H         70.69612       66.96591       99.98967
H         71.16977       67.75731      102.19024
H         72.45600       68.16455      101.15042
H         71.35650       69.36628      101.64599
N         66.08626       66.02257       97.61846
C         65.77956       64.60043       97.61552
C         64.27922       64.39159       97.38795
O         63.67176       63.75696       98.23917
C         66.69983       63.86394       96.60773
C         66.25699       62.42607       96.29720
C         67.10089       61.82818       95.20614
O         67.19336       62.39249       94.12522
O         67.72582       60.64899       95.39648
H         66.74437       66.39950       96.91919
H         66.02584       64.16292       98.61285
H         67.74166       63.87296       97.00404
H         66.73877       64.41269       95.65519
H         65.21583       62.44745       95.91549
H         66.28963       61.79407       97.21167
N         63.57520       64.86199       96.31581
C         64.09088       65.71710       95.26862
H         65.10069       65.43883       94.94772
H         63.45060       65.60897       94.36727
H         64.06172       66.77785       95.59538
H         62.56549       64.65102       96.27569
Ca        51.08975       62.31436       89.48963
O         49.43477       62.53478       91.24583
H         48.64607       62.07881       91.61746
H         49.17922       63.48504       91.12785
O         50.92191       58.92690       88.53683
H         51.32950       58.03253       88.42281
H         50.10033       58.76031       89.06470
O         51.56893       60.21054       91.14573
H         51.52127       59.23521       91.30432
H         51.48695       60.62158       92.04225
O         53.96632       60.70759       89.27245
H         54.36253       59.85943       88.95184
H         54.50012       60.94557       90.07209

Ca 1.0



