%chk=apoCaM-CA-Ng.loop1.water3.frame191.chk
%nprocshared=20
%mem=10GB
%nosave
#b3lyp/svp scf=(tight,noincore,xqc) Test 
#IOP(5/87=12) Density=Current Pop=(MK,readradii) iop(6/33=2) iop(6/42=6)

apoCaM-CA-Ng.loop1.water3.frame191 

   0  1 
C        110.41898       33.46225       24.92644
C        111.16823       34.22968       23.87684
O        111.55563       33.64020       22.87775
H        109.49905       33.02669       24.48377
H        111.06108       32.64494       25.31551
H        110.12648       34.11470       25.77641
N        111.40360       35.56310       24.03138
C        112.09447       36.36766       23.02767
C        113.57831       36.02161       22.85513
O        114.20643       36.63912       22.01691
C        111.88903       37.87850       23.28977
C        112.57453       38.41081       24.51563
O        112.27172       37.94437       25.74159
O        113.38541       39.31338       24.40104
H        111.01103       36.02784       24.86272
H        111.58953       36.18002       22.05966
H        110.80020       38.08841       23.36822
H        112.26792       38.44032       22.40810
N        114.20786       35.03857       23.55716
C        115.60901       34.67076       23.35324
C        115.68952       33.30677       22.68742
O        115.06184       32.39063       23.20215
C        116.33707       34.56812       24.71287
C        116.91858       35.87029       25.27390
C        115.92342       36.99468       25.56723
C        116.68593       38.17356       26.20203
N        115.81051       39.30924       26.47397
H        113.67619       34.48015       24.23747
H        116.13539       35.39910       22.72100
H        117.23221       33.92986       24.56851
H        115.69507       34.04886       25.45820
H        117.68431       36.24333       24.56070
H        117.44334       35.60404       26.21811
H        115.14018       36.63513       26.26904
H        115.44253       37.32350       24.62258
H        117.50198       38.50597       25.52197
H        117.14873       37.83561       27.15598
H        115.01151       39.01779       27.08227
H        116.36051       40.05163       26.96348
H        115.46291       39.70582       25.57420
N        116.48968       33.01696       21.60822
C        117.37376       33.90674       20.84185
C        118.35372       34.72363       21.69209
O        118.28547       35.94382       21.64618
C        116.61087       34.84427       19.87844
C        115.82932       34.17939       18.79487
O        115.64709       32.84901       18.74303
O        115.31727       34.88120       17.93738
H        116.50837       32.02723       21.31372
H        117.98863       33.27109       20.16970
H        117.37120       35.45793       19.34644
H        115.93198       35.52151       20.43090
N        119.35998       34.19467       22.43212
C        119.69098       32.79535       22.56670
C        119.88818       32.44183       24.03238
O        119.59774       33.26614       24.88782
H        120.00245       34.86030       22.89165
H        120.64836       32.67356       22.03474
H        118.94630       32.12420       22.09292
N        120.40282       31.24656       24.43746
C        120.83512       30.19115       23.52989
C        121.96977       30.63853       22.62111
O        122.73956       31.51877       22.98335
C        121.27093       28.92260       24.29900
C        122.51700       29.12178       25.13259
O        122.53744       30.00807       26.14648
O        123.51924       28.46738       24.89380
H        120.47121       31.08821       25.45373
H        119.95527       29.91801       22.90548
H        121.46476       28.11548       23.55814
H        120.44293       28.58317       24.95738
N        122.11960       30.04726       21.40755
C        123.17719       30.36776       20.46848
C        123.11550       31.78654       19.95243
O        124.12939       32.46967       19.98733
H        121.45424       29.30730       21.13519
H        123.06578       29.70037       19.58676
H        124.16899       30.16033       20.92624
N        121.97049       32.27366       19.39434
C        121.91241       33.55826       18.69133
C        122.30465       34.72949       19.59118
O        122.30234       34.59463       20.80720
C        120.49869       33.79400       18.07681
C        120.07144       32.69296       17.09528
O        120.46697       35.01291       17.38506
H        121.13543       31.67212       19.42553
H        122.65747       33.50765       17.86636
H        119.77791       33.82789       18.92315
H        119.52409       35.32761       17.39228
H        120.01372       31.69559       17.57154
H        119.05787       32.92385       16.70162
H        120.78011       32.64587       16.24209
N        122.67946       35.91606       19.02637
C        123.03815       37.11517       19.78190
C        122.07316       38.26175       19.51560
O        122.23805       39.30411       20.13476
C        124.51597       37.54375       19.50409
C        124.91531       37.71089       18.00966
C        125.47763       36.53790       20.15354
C        124.09800       38.72831       17.21857
H        122.70948       35.97417       17.99762
H        122.94438       36.92563       20.87464
H        124.69247       38.51468       20.02030
H        124.86484       36.73445       17.48225
H        125.97290       38.05419       17.97849
H        125.27351       36.45833       21.24275
H        125.37207       35.53340       19.69251
H        126.52864       36.87946       20.03363
H        124.11142       39.72053       17.71690
H        124.52684       38.83433       16.19990
H        123.05984       38.37588       17.08866
N        121.03635       38.14719       18.63512
C        120.07263       39.20356       18.39108
C        118.71592       38.71737       18.84372
O        118.14833       37.82563       18.22889
C        120.09977       39.67459       16.90773
C        119.91629       38.55596       15.86730
O        121.32696       40.30337       16.64393
H        120.88991       37.26856       18.13289
H        120.32010       40.09812       19.00247
H        119.27219       40.40624       16.74859
H        121.25444       41.23586       16.97690
H        119.94847       38.99176       14.84633
H        120.73520       37.80904       15.93350
H        118.94428       38.03792       15.97221
N        118.15552       39.23368       19.97332
C        116.84297       38.81451       20.44828
C        115.76388       39.25758       19.47550
O        116.06596       39.96553       18.52283
C        116.57903       39.31434       21.89767
C        116.54704       40.83796       22.04811
O        117.57052       38.80837       22.75179
H        118.69954       39.91515       20.52068
H        116.82830       37.70769       20.49164
H        115.58329       38.95002       22.24040
H        117.30358       37.88074       22.97513
H        117.52051       41.29759       21.78305
H        115.75043       41.27866       21.41517
H        116.33538       41.09253       23.10929
N        114.47054       38.87701       19.66500
C        113.37853       39.30079       18.81041
C        112.65823       38.09149       18.22525
O        112.59089       37.97578       17.01017
C        112.44992       40.21012       19.64683
C        111.54378       41.14452       18.82252
C        112.30613       42.10650       17.87609
C        113.40568       42.93178       18.57938
N        114.09942       43.80305       17.63248
H        114.23933       38.30785       20.47896
H        113.79500       39.89799       17.97956
H        113.07474       40.86297       20.29163
H        111.84281       39.60290       20.35032
H        110.96203       41.75794       19.54532
H        110.82359       40.54488       18.22632
H        111.56770       42.79780       17.41638
H        112.76392       41.53326       17.04516
H        114.16656       42.25838       19.02837
H        112.95537       43.54444       19.39117
H        114.55228       43.22722       16.88521
H        113.42928       44.48043       17.20368
H        114.84497       44.33303       18.14016
N        112.10421       37.14535       19.04235
C        111.37077       35.96917       18.57589
C        109.95103       36.04998       19.09131
O        109.75226       36.09065       20.29762
C        112.05641       34.66938       19.07178
C        111.25109       33.37278       18.81214
C        110.95175       33.10693       17.35747
O        111.93592       32.77802       16.49698
O        109.79826       33.14007       16.96041
H        112.18934       37.27230       20.06051
H        111.34988       35.93098       17.46495
H        112.21846       34.73640       20.16948
H        113.04457       34.59142       18.59454
H        110.29594       33.44307       19.37451
H        111.80422       32.50159       19.22548
N        108.90728       36.04958       18.21741
C        107.52116       36.07976       18.63328
H        107.00907       35.17082       18.25384
H        107.40967       36.10598       19.73768
H        107.03024       36.97814       18.20684
H        109.09569       36.01110       17.20449
Ca       113.98406       32.37002       17.32246
O        116.35143       32.80076       14.10507
H        116.35230       32.65767       13.12524
H        117.28002       32.60274       14.38593
O        113.76868       34.60924       14.66826
H        114.38537       35.04640       14.02861
H        113.04306       35.26900       14.80492
O        116.25743       30.30004       16.15908
H        116.41041       29.77584       16.98495
H        117.14755       30.34900       15.72817

Ca 1.0



