%chk=apoCaM-CA-Ng.loop2.water3.frame728.chk
%nprocshared=20
%mem=10GB
%nosave
#b3lyp/svp scf=(tight,noincore,xqc) Test 
#IOP(5/87=12) Density=Current Pop=(MK,readradii) iop(6/33=2) iop(6/42=6)

apoCaM-CA-Ng.loop2.water3.frame728 

   -2  1 
C         67.67558      102.37544       -4.32371
C         67.61390      103.57736       -5.22643
O         66.73460      104.40768       -5.04914
H         68.50909      101.69638       -4.60498
H         67.82593      102.69757       -3.27229
H         66.72586      101.80480       -4.39768
N         68.51974      103.72908       -6.23158
C         68.50676      104.84666       -7.17229
C         68.71585      106.17619       -6.47285
O         69.64154      106.30668       -5.68427
C         69.61031      104.68405       -8.23826
C         69.41517      103.48376       -9.12902
O         68.36241      102.65636       -8.97156
O         70.21523      103.26746      -10.02450
H         69.24282      103.00138       -6.34543
H         67.53360      104.86616       -7.71242
H         70.60364      104.61870       -7.74251
H         69.60440      105.58254       -8.89493
N         67.93829      107.24391       -6.81162
C         68.14421      108.58675       -6.27245
C         67.66946      108.66375       -4.81830
O         66.99335      107.74022       -4.38866
C         67.37139      109.58221       -7.15580
H         67.22880      107.10863       -7.54905
H         69.22430      108.82084       -6.36234
H         67.51503      110.63545       -6.87304
H         67.72223      109.48712       -8.20634
H         66.28334      109.36228       -7.12566
N         67.93690      109.71139       -3.97309
C         68.81786      110.84492       -4.26175
C         70.25435      110.39579       -4.48607
O         70.56601      109.23572       -4.24912
C         68.74288      111.91178       -3.13654
C         69.12359      111.43270       -1.75723
O         69.43860      110.27362       -1.55285
O         69.09231      112.29653       -0.72535
H         67.48962      109.67343       -3.04410
H         68.46757      111.35166       -5.17390
H         67.69968      112.29053       -3.07950
H         69.39908      112.76825       -3.40048
N         71.17393      111.25872       -5.00312
C         72.54636      110.87527       -5.30888
C         72.75298      110.80739       -6.80787
O         71.79936      111.03819       -7.54090
H         70.87466      112.21454       -5.25457
H         72.77094      109.87431       -4.89222
H         73.24134      111.60720       -4.84551
N         73.94545      110.47813       -7.38526
C         75.19961      110.20807       -6.68102
C         75.07293      109.01162       -5.75533
O         74.69219      107.94113       -6.20990
C         76.31628      109.93386       -7.72005
C         77.69863      109.74557       -7.13362
N         78.73825      109.46487       -7.95189
O         77.89186      109.84656       -5.93102
H         73.95967      110.44202       -8.41777
H         75.48493      111.11696       -6.10691
H         76.36990      110.79052       -8.42670
H         76.05097      109.02310       -8.30189
H         78.59648      109.37294       -8.96852
H         79.68596      109.33352       -7.56844
N         75.40602      109.12069       -4.43737
C         75.29096      107.99591       -3.52714
C         75.76784      108.35721       -2.13901
O         76.95201      108.59685       -1.95236
H         75.74552      110.02697       -4.07915
H         75.89286      107.13591       -3.89303
H         74.22388      107.68562       -3.49896
N         74.87149      108.43851       -1.12001
C         75.20510      108.76193        0.26048
C         74.48766      107.77264        1.15586
O         73.27615      107.64968        1.04101
C         74.76029      110.20836        0.58335
C         75.04537      110.58258        2.04358
O         75.45600      111.11039       -0.23910
H         73.87871      108.29169       -1.34367
H         76.30476      108.71870        0.42841
H         73.66524      110.32013        0.42647
H         74.94755      111.18927       -1.08719
H         76.13121      110.49735        2.26253
H         74.72375      111.62837        2.23341
H         74.48640      109.92429        2.74133
N         75.16100      107.03555        2.08003
C         74.46459      106.10283        2.96466
C         73.55564      106.94149        3.86586
O         74.06524      107.76115        4.61814
C         75.47076      105.20709        3.77584
C         74.81925      104.00611        4.52714
C         76.52963      104.57036        2.84138
C         73.68566      104.32195        5.48922
H         76.17779      107.16882        2.15537
H         73.87051      105.41091        2.32911
H         76.00356      105.85158        4.50938
H         75.61555      103.50157        5.11765
H         74.43376      103.26681        3.79368
H         77.16267      105.31214        2.32145
H         77.23052      103.93556        3.42446
H         76.03634      103.93680        2.07195
H         73.37184      103.39055        6.00700
H         73.99047      105.07771        6.24071
H         72.81290      104.66425        4.92071
N         72.19818      106.80248        3.82196
C         71.28064      107.59059        4.64523
C         69.90053      106.92781        4.74920
O         68.89139      107.62009        4.76333
C         71.19954      109.06050        4.15203
C         70.94505      109.11035        2.67129
O         71.71754      109.71154        1.94509
O         69.94506      108.40302        2.11897
H         71.80686      106.07717        3.20836
H         71.65752      107.58282        5.69079
H         72.15777      109.58744        4.35249
H         70.40603      109.61063        4.70180
N         69.80753      105.58316        4.96147
C         68.58563      104.88268        5.33073
C         68.25554      103.78428        4.32013
O         68.37568      102.61466        4.66187
C         68.78041      104.28352        6.74588
C         68.88253      105.34660        7.81597
C         70.02015      106.16611        7.94415
C         67.81237      105.52326        8.70834
C         70.07183      107.15169        8.93596
C         67.86660      106.50888        9.69463
C         68.99370      107.32492        9.80778
H         70.66443      105.01784        4.94065
H         67.70848      105.56193        5.39434
H         69.66686      103.61024        6.78970
H         67.88439      103.66043        6.95557
H         70.86997      106.04220        7.28822
H         66.92694      104.90488        8.63228
H         70.94725      107.78176        9.03001
H         67.03055      106.63944       10.36847
H         69.03097      108.08871       10.57318
N         67.79283      104.05789        3.05991
C         67.47851      103.03200        2.06837
C         68.62798      102.07771        1.82399
O         68.39866      100.91562        1.52115
C         67.21139      103.84453        0.79644
C         66.58233      105.09240        1.36526
C         67.49322      105.38263        2.55747
H         66.57031      102.48274        2.40433
H         68.17700      104.16267        0.33689
H         66.61451      103.30786        0.02785
H         66.45651      105.93103        0.65596
H         65.57490      104.80810        1.74856
H         68.44300      105.87860        2.26064
H         66.92550      106.01116        3.27486
N         69.90481      102.52850        1.93911
C         71.08181      101.70473        1.76894
C         71.13410      100.69307        2.89906
O         71.16450       99.50129        2.62518
C         72.36972      102.56999        1.73974
C         72.58241      103.37592        0.42972
C         71.77920      104.63414        0.17984
O         71.93736      105.22795       -0.87377
O         70.95642      105.16933        1.09350
H         70.03927      103.49939        2.22223
H         71.03399      101.16495        0.79629
H         73.21662      101.84787        1.76555
H         72.45340      103.22069        2.63471
H         72.42922      102.68258       -0.42488
H         73.64425      103.70188        0.40872
N         71.11296      101.10599        4.19900
C         71.11744      100.19819        5.32952
H         70.17968      100.33150        5.90995
H         71.18647       99.13359        5.02112
H         71.98055      100.43060        5.98702
H         71.06472      102.11504        4.40501
Ca        70.18866      107.97540       -0.07708
O         69.73087      106.64769       -2.61371
H         70.55959      106.85539       -3.11342
H         69.39584      105.80867       -3.01726
O         72.14388      110.09797       -1.64922
H         71.95386      109.24408       -2.11254
H         72.87195      110.51078       -2.17563
O         67.46344      107.78656       -0.63700
H         67.09850      108.70121       -0.72676
H         67.26151      107.34295       -1.49821

Ca 1.0



