%chk=apoCaM-CA-Ng.loop4.water4.frame280.chk
%nprocshared=20
%mem=10GB
%nosave
#b3lyp/svp scf=(tight,noincore,xqc) Test 
#IOP(5/87=12) Density=Current Pop=(MK,readradii) iop(6/33=2) iop(6/42=6)

apoCaM-CA-Ng.loop4.water4.frame280 

   -3  1 
C         32.50660       35.59056       10.06725
C         32.01898       34.91614        8.82273
O         32.62135       35.11295        7.78523
H         33.40082       36.21436        9.84538
H         31.70909       36.24522       10.47391
H         32.78671       34.82650       10.82107
N         30.93855       34.08616        8.86009
C         30.39484       33.37215        7.70719
C         31.39448       32.42675        7.07323
O         31.68551       32.56739        5.90142
C         29.62569       34.28106        6.70575
C         30.20404       35.57804        6.16577
O         31.33241       35.69152        5.42685
O         29.55197       36.59553        6.34099
H         30.48588       33.92458        9.77277
H         29.59767       32.68734        8.07904
H         28.68858       34.57132        7.23436
H         29.30365       33.65440        5.84591
N         31.88190       31.37635        7.79964
C         32.74980       30.29680        7.31448
C         32.02380       29.42528        6.28740
O         31.61439       28.33063        6.65014
C         34.14352       30.81513        6.86171
C         35.08402       29.68870        6.35589
C         34.80313       31.61054        8.00456
C         35.43774       28.62076        7.39458
H         31.58669       31.31121        8.78667
H         32.92070       29.63964        8.19731
H         34.00747       31.50860        6.00618
H         36.03045       30.15072        5.99706
H         34.61632       29.18380        5.48473
H         34.18690       32.49493        8.27203
H         34.92017       30.98880        8.91583
H         35.80289       31.97242        7.69875
H         35.97194       29.06612        8.25823
H         34.53255       28.09039        7.75132
H         36.10710       27.86832        6.92892
N         31.80719       29.83460        5.00442
C         30.95359       29.11166        4.07123
C         31.69638       27.99692        3.32893
O         31.24393       26.86895        3.47018
C         30.17063       30.09724        3.17947
C         29.20671       30.96657        3.95412
O         29.07149       30.84982        5.29057
O         28.52367       31.78271        3.35704
H         32.19250       30.72969        4.68725
H         30.14679       28.59780        4.64664
H         29.57533       29.52177        2.43758
H         30.86525       30.77305        2.65741
N         32.82700       28.12525        2.56413
C         33.59996       29.32548        2.29552
C         32.99151       30.21633        1.23295
O         31.91683       29.90650        0.73869
H         33.22997       27.25080        2.19052
H         34.57639       29.00305        1.87678
H         33.80605       29.85103        3.24403
N         33.62876       31.33269        0.76539
C         34.98090       31.74994        1.15635
C         35.05607       32.10535        2.62940
O         34.01805       32.36520        3.22020
C         35.40232       32.99563        0.33618
C         35.38290       32.73764       -1.14366
O         34.57195       33.45931       -1.94132
O         36.10433       31.88212       -1.63042
H         33.13552       31.88160        0.04308
H         35.67285       30.90831        0.94068
H         36.42003       33.33417        0.60539
H         34.70544       33.83244        0.56711
N         36.23040       32.19043        3.31998
C         37.55989       31.83969        2.85728
C         37.78604       30.35301        2.88524
O         36.85369       29.59303        3.11507
H         36.18426       32.48650        4.29591
H         38.28053       32.25006        3.60012
H         37.81729       32.29511        1.88369
N         39.05120       29.87360        2.73715
C         39.39283       28.46403        2.84665
C         40.22493       28.17362        4.09452
O         40.55860       27.01767        4.29218
C         40.06536       27.97284        1.54622
C         41.42512       28.62654        1.24894
C         41.99212       28.12218       -0.05300
N         41.35024       28.35550       -1.22277
O         43.04795       27.50729       -0.05439
H         39.81328       30.55475        2.59173
H         38.46885       27.85427        2.96116
H         39.36066       28.16906        0.70935
H         40.21256       26.87175        1.61062
H         42.12294       28.38436        2.07864
H         41.33416       29.72873        1.17404
H         40.46641       28.88488       -1.24515
H         41.74169       28.01380       -2.11289
N         40.54043       29.15142        5.00885
C         41.23825       28.85936        6.26666
C         42.56022       29.59772        6.40572
O         43.28080       29.27468        7.34727
C         40.32280       29.15250        7.48959
C         39.04778       28.30269        7.43354
C         39.95441       30.64180        7.62098
H         40.23477       30.11669        4.84689
H         41.49845       27.77964        6.30188
H         40.87480       28.86020        8.41146
H         38.43941       28.56518        6.54202
H         39.30578       27.22347        7.38745
H         38.43611       28.47278        8.34467
H         40.86774       31.26685        7.71087
H         39.36414       30.99332        6.75022
H         39.34494       30.80294        8.53557
N         42.96490       30.58037        5.55184
C         44.27021       31.22145        5.65075
C         44.15746       32.70668        5.95173
O         44.73479       33.14587        6.93372
C         45.05915       31.00862        4.34415
C         45.24708       29.54458        4.03234
N         44.76606       29.01680        2.88267
O         45.84397       28.82914        4.82350
H         42.34749       30.87667        4.77985
H         44.87425       30.76736        6.47041
H         46.06236       31.47873        4.43732
H         44.52656       31.50291        3.50321
H         44.26507       29.60422        2.20012
H         44.89465       28.01630        2.67095
N         43.49424       33.55004        5.10555
C         43.57498       35.00641        5.20952
C         42.20851       35.66665        5.31898
O         41.26473       35.21880        4.68613
C         44.26064       35.53088        3.93156
C         45.65353       34.97259        3.75570
C         46.68702       35.33769        4.63515
C         45.93243       34.08713        2.70107
C         47.97832       34.82979        4.45669
C         47.22045       33.57210        2.53140
C         48.24834       33.94346        3.40348
O         49.48782       33.44603        3.21790
H         43.00215       33.15341        4.29251
H         44.19184       35.32214        6.07902
H         44.33010       36.63943        3.94486
H         43.62639       35.24542        3.06262
H         46.49677       36.02473        5.45023
H         45.15142       33.78678        2.01400
H         48.76809       35.12718        5.13524
H         47.41950       32.88515        1.71854
H         50.23023       33.68474        3.79104
N         42.09742       36.85175        5.99699
C         40.92436       37.73068        5.99864
C         39.70759       37.18845        6.73172
O         38.70523       37.89055        6.75884
C         40.55595       38.19185        4.57087
C         41.72681       38.90751        3.88325
C         41.31801       39.43445        2.53970
O         40.93700       38.67038        1.66727
O         41.37507       40.75653        2.28953
H         42.93461       37.21108        6.48024
H         41.20037       38.65271        6.56018
H         39.71229       38.91440        4.64059
H         40.21584       37.33409        3.95433
H         42.57897       38.21111        3.75051
H         42.06196       39.75709        4.51807
N         39.73116       36.01967        7.42907
C         38.61659       35.57955        8.26041
C         39.01202       35.76882        9.70835
O         38.32485       36.49893       10.41005
C         38.23178       34.12231        7.94522
C         37.73288       33.89700        6.50467
C         36.41894       34.57900        6.19812
O         36.33304       35.79503        6.16130
O         35.33683       33.82749        5.91654
H         40.59717       35.46382        7.45595
H         37.71634       36.20966        8.10547
H         37.43554       33.78781        8.64685
H         39.12118       33.47695        8.10974
H         37.58548       32.80251        6.38061
H         38.50290       34.21009        5.76788
N         40.14097       35.19426       10.21039
C         40.61710       35.42983       11.55859
H         41.62086       35.90318       11.50925
H         39.94983       36.10593       12.13426
H         40.69684       34.46552       12.09906
H         40.71649       34.59035        9.60568
Ca        33.31443       34.60441        5.29442
O         32.48464       36.08479        1.99692
H         32.55488       35.43956        1.24905
H         33.08381       36.82922        1.73845
O         33.32071       37.85952        5.20910
H         32.74707       37.92531        6.01370
H         34.22584       37.67693        5.56562
O         35.46124       35.70589        2.93518
H         36.16487       35.07040        3.21874
H         35.76457       36.03165        2.05081
O         31.26106       33.47176        2.99276
H         30.38002       33.89320        2.83262
H         31.55669       33.16609        2.09856

Ca 1.0



