%chk=apoCaM-CA-Ng.loop3.water5.frame1046.chk
%nprocshared=20
%mem=10GB
%nosave
#b3lyp/svp scf=(tight,noincore,xqc) Test 
#IOP(5/87=12) Density=Current Pop=(MK,readradii) iop(6/33=2) iop(6/42=6)

apoCaM-CA-Ng.loop3.water5.frame1046 

   0  1 
C         47.92723       69.15360       38.76669
C         49.40724       69.08680       38.99113
O         49.83397       68.81488       40.10431
H         47.37426       68.93220       39.70387
H         47.65460       70.17569       38.42631
H         47.63352       68.42022       37.98777
N         50.25384       69.35946       37.96155
C         51.70764       69.38460       38.09535
C         52.27350       70.79020       37.96474
O         53.41681       70.96700       38.34794
C         52.36634       68.43931       37.07178
C         51.88229       68.67978       35.66048
O         51.36324       67.77047       35.03381
O         51.97656       69.89686       35.09301
H         49.83596       69.59602       37.04836
H         51.99962       69.05205       39.11648
H         52.13433       67.38797       37.34737
H         53.46815       68.56975       37.11745
N         51.52709       71.83362       37.50220
C         51.96137       73.23007       37.42451
C         52.90774       73.46333       36.22803
O         52.53592       74.17357       35.30415
C         50.65844       74.07513       37.34429
C         50.78031       75.58740       37.57791
C         49.36446       76.19414       37.51095
C         49.32386       77.68839       37.84095
N         47.95216       78.19360       37.73841
H         50.54995       71.64104       37.24597
H         52.45534       73.51368       38.38073
H         49.98857       73.70731       38.15623
H         50.15309       73.87581       36.37302
H         51.43434       76.06111       36.81637
H         51.21409       75.76377       38.58722
H         48.70458       75.67032       38.23875
H         48.95527       76.03522       36.48889
H         49.97681       78.24881       37.13747
H         49.69623       77.84712       38.87760
H         47.32374       77.67668       38.39670
H         47.93517       79.20895       37.98542
H         47.59901       78.07794       36.76026
N         54.15728       72.90616       36.18748
C         55.11924       73.07379       35.09660
C         55.56714       71.74558       34.48109
O         56.43401       71.77980       33.61770
C         56.34984       73.83661       35.62393
C         57.02086       73.16479       36.78903
O         57.48803       72.04064       36.69618
O         57.12852       73.84730       37.93785
H         54.48696       72.36586       36.98890
H         54.68670       73.68444       34.27469
H         56.02297       74.84878       35.94718
H         57.09407       73.97107       34.80996
N         55.02885       70.54726       34.84685
C         55.48133       69.26851       34.31244
C         54.47942       68.71263       33.32305
O         53.81777       69.51227       32.67552
H         54.25861       70.52530       35.52457
H         55.65455       68.60037       35.17675
H         56.44551       69.36334       33.76975
N         54.30370       67.38054       33.07413
C         54.98165       66.26663       33.73004
C         53.92310       65.44370       34.44325
O         53.01793       64.96995       33.76826
C         55.69166       65.39521       32.66054
C         56.38402       64.15731       33.20155
N         56.98243       63.29326       32.34976
O         56.40015       63.91832       34.39935
H         53.59912       67.13096       32.36024
H         55.75353       66.61613       34.43555
H         56.44644       66.01334       32.12867
H         54.93806       65.05812       31.91462
H         56.97591       63.46447       31.33400
H         57.44426       62.44287       32.70675
N         53.92808       65.19236       35.78256
C         54.91878       65.69686       36.73303
C         54.67252       65.16545       38.13545
O         53.78285       64.34617       38.31993
H         53.15479       64.60351       36.12482
H         54.87280       66.80306       36.74659
H         55.94019       65.38739       36.43251
N         55.41554       65.60115       39.19814
C         55.15330       65.07890       40.54049
C         55.77832       65.91804       41.65009
O         56.71365       66.66669       41.41146
C         55.66083       63.61433       40.63508
C         55.21793       62.92320       41.89734
C         56.15132       62.52150       42.86674
C         53.85308       62.67389       42.11040
C         55.72052       61.89645       44.04094
C         53.42544       62.04354       43.27992
C         54.35816       61.65672       44.25260
O         53.95674       61.05751       45.39114
H         56.11819       66.33949       39.04573
H         54.05286       65.14546       40.69111
H         56.77170       63.63319       40.56059
H         55.29356       63.00224       39.78538
H         57.20917       62.70111       42.72098
H         53.12134       62.96813       41.36825
H         56.44613       61.60088       44.78812
H         52.36921       61.86018       43.42887
H         53.02306       60.88171       45.57611
N         55.25888       65.84009       42.91304
C         55.79242       66.57505       44.06137
C         57.19567       66.10387       44.42342
O         57.69041       65.15983       43.82219
C         54.82813       66.50586       45.29434
C         53.52533       67.28526       44.98413
C         54.54697       65.06106       45.76618
C         52.62752       67.48703       46.20605
H         54.42367       65.25609       43.04096
H         55.88258       67.64640       43.77569
H         55.31912       67.04040       46.13422
H         52.94799       66.78541       44.17727
H         53.80333       68.30222       44.62925
H         53.96617       64.48464       45.01888
H         55.49473       64.52294       45.97259
H         53.95960       65.06053       46.70648
H         53.18888       68.00816       47.01138
H         51.75880       68.11804       45.92231
H         52.23888       66.52322       46.59006
N         57.90976       66.75412       45.39081
C         59.28864       66.41825       45.73361
C         60.20381       67.59633       45.44946
O         59.71720       68.69366       45.21244
C         59.37998       65.97663       47.20062
O         58.93446       67.00367       48.04652
H         57.47405       67.54884       45.88302
H         59.64147       65.57604       45.09973
H         60.42881       65.71369       47.45910
H         58.74097       65.07139       47.32484
H         58.66959       66.57171       48.90023
N         61.55732       67.41004       45.39522
C         62.52572       68.43839       45.01602
C         62.69629       69.53817       46.05223
O         63.41961       70.48133       45.76208
C         62.18859       69.02049       43.62820
H         61.92437       66.46082       45.56229
H         63.52283       67.95576       44.91794
H         62.99166       69.71014       43.29236
H         62.10589       68.20118       42.88327
H         61.24346       69.59926       43.62924
N         62.10014       69.48958       47.28310
C         62.21160       70.55365       48.27607
C         61.62141       71.81592       47.69401
O         62.29980       72.82876       47.58133
C         63.65995       70.72551       48.76791
H         61.51497       68.68149       47.53610
H         61.60266       70.27603       49.16512
H         64.02697       69.77012       49.19797
H         64.34762       71.03548       47.95534
H         63.69811       71.50219       49.56188
N         60.33236       71.78473       47.26002
C         59.68266       72.88706       46.57381
C         58.51454       73.44458       47.37954
O         57.99886       74.48565       46.99671
C         59.26154       72.36194       45.18407
C         58.57983       73.40480       44.30435
C         58.29190       72.85992       42.94356
O         58.83761       73.46966       41.88142
O         57.53011       71.91763       42.78943
H         59.79673       70.91032       47.38110
H         60.40103       73.72634       46.43861
H         58.57881       71.49151       45.30662
H         60.18127       72.00950       44.66300
H         59.24518       74.28978       44.20662
H         57.61367       73.72345       44.74421
N         58.05239       72.83806       48.51184
C         56.96313       73.36986       49.30548
H         56.12525       72.64241       49.31343
H         57.31593       73.52942       50.34519
H         56.58276       74.33778       48.91618
H         58.46586       71.95547       48.83999
Ca        58.13157       73.11391       39.79429
O         58.06725       69.07170       39.78835
H         57.99537       68.97879       40.77159
H         58.84266       68.50804       39.54124
O         60.91171       73.61868       38.89960
H         60.93325       74.58937       38.70647
H         61.20961       73.54655       39.84111
O         60.58658       70.94013       40.96605
H         61.56141       71.07108       40.85284
H         60.48440       69.96830       41.12346
O         55.78642       70.96422       40.16870
H         55.30105       70.43483       40.85035
H         55.33747       71.84669       40.17116
O         59.96360       70.69542       37.76968
H         59.60150       70.05985       37.10214
H         60.94261       70.55056       37.74584

Ca 1.0



