%chk=apoCaM-CA-Ng.loop1.water4.frame1030.chk
%nprocshared=20
%mem=10GB
%nosave
#b3lyp/svp scf=(tight,noincore,xqc) Test 
#IOP(5/87=12) Density=Current Pop=(MK,readradii) iop(6/33=2) iop(6/42=6)

apoCaM-CA-Ng.loop1.water4.frame1030 

   0  1 
C         36.27713       44.85819       76.92466
C         35.76471       46.01121       77.73969
O         34.59770       46.35086       77.60885
H         37.34743       44.65164       77.13796
H         35.68838       43.94648       77.15461
H         36.17712       45.09411       75.84387
N         36.59670       46.67913       78.58789
C         36.19155       47.84205       79.37244
C         36.92099       49.05558       78.83137
O         37.67976       49.71220       79.53047
C         36.37969       47.57488       80.88479
C         37.78281       47.27468       81.35766
O         37.98621       47.00241       82.66035
O         38.73521       47.27465       80.59431
H         37.57915       46.37366       78.64162
H         35.10774       48.05110       79.23249
H         35.74142       46.70480       81.15244
H         36.00661       48.45648       81.44923
N         36.71585       49.38008       77.52662
C         37.40304       50.44570       76.80954
C         37.16124       51.81453       77.44781
O         38.14949       52.45875       77.77055
C         37.00481       50.39656       75.31239
C         38.03167       51.02701       74.36232
C         37.54969       50.83922       72.90976
C         38.59269       51.19735       71.84017
N         39.71796       50.25709       71.83255
H         36.05261       48.79186       76.99819
H         38.49011       50.20565       76.85382
H         35.99645       50.82433       75.14386
H         36.97240       49.32455       75.01375
H         38.99154       50.49181       74.51828
H         38.18560       52.10603       74.57930
H         36.64873       51.47489       72.76652
H         37.25002       49.78192       72.73535
H         38.95659       52.23822       71.97810
H         38.08744       51.13637       70.85022
H         40.33882       50.47452       71.02014
H         40.28190       50.33689       72.70714
H         39.36866       49.27607       71.72489
N         35.92475       52.34186       77.72933
C         34.63752       51.68475       77.49744
C         33.97896       51.31424       78.81577
O         34.39503       51.79887       79.85977
C         33.71018       52.53223       76.59935
C         33.30004       53.85618       77.19571
O         32.12042       54.08936       77.40206
O         34.21425       54.80967       77.45745
H         35.90988       53.25531       78.20647
H         34.79265       50.73456       76.96941
H         32.79305       51.93924       76.39095
H         34.21490       52.72448       75.62862
N         33.00720       50.35507       78.84621
C         32.46747       49.84061       80.09388
C         31.49068       50.78243       80.75426
O         31.03402       51.72909       80.12900
H         32.73657       49.88997       77.96802
H         33.31616       49.61338       80.77638
H         31.93014       48.88484       79.91367
N         31.13648       50.56963       82.05147
C         30.19307       51.39357       82.80127
C         29.16793       50.50745       83.49716
O         29.56252       49.48908       84.05283
C         30.92090       52.19532       83.89548
C         31.87250       53.21054       83.32891
O         31.69360       54.39915       83.54427
O         32.93504       52.82112       82.59995
H         31.60155       49.79592       82.55426
H         29.69784       52.13824       82.14274
H         31.47068       51.51446       84.57942
H         30.15440       52.73994       84.49350
N         27.86022       50.85775       83.64870
C         27.26477       52.07337       83.12169
C         27.04344       51.98041       81.63650
O         27.35549       50.96299       81.03907
H         27.25658       50.24980       84.22419
H         27.87043       52.96008       83.40395
H         26.25773       52.19579       83.57642
N         26.41113       52.99795       80.98820
C         25.96706       52.87342       79.60310
C         27.12715       53.01468       78.55729
O         28.38202       52.92602       79.16006
C         24.77311       53.83427       79.36838
C         24.11478       53.68524       77.99734
O         25.17517       55.16335       79.56390
H         26.10638       53.80844       81.54881
H         25.52938       51.85213       79.50768
H         24.00711       53.56167       80.13539
H         24.37621       55.66663       79.87239
H         24.81365       53.99246       77.19370
H         23.78994       52.63432       77.83931
H         23.21732       54.33692       77.94265
N         26.95745       51.96383       77.53970
C         27.99570       51.65312       76.53495
C         28.31882       52.81728       75.61730
O         29.02121       53.73520       76.01375
C         29.28050       50.97381       77.09572
C         28.97732       49.86673       78.13581
C         30.12845       50.40681       75.93792
C         27.98223       48.79415       77.68796
H         26.06684       52.13821       77.02448
H         27.51728       50.87019       75.90529
H         29.91095       51.72954       77.61227
H         28.56379       50.33940       79.04216
H         29.93029       49.37946       78.43312
H         31.05230       49.93331       76.32648
H         29.56224       49.64777       75.35901
H         30.43641       51.21413       75.24094
H         27.85383       48.05569       78.50691
H         26.98622       49.24175       77.48827
H         28.33809       48.26339       76.78357
N         27.83817       52.80988       74.34453
C         28.15770       53.81022       73.33528
C         26.97776       54.72904       73.06769
O         27.09508       55.56733       72.19000
C         28.61154       53.10224       72.02441
C         27.50428       52.26716       71.34173
O         29.75157       52.31294       72.25730
H         27.18399       52.05879       74.08264
H         28.99089       54.46168       73.68146
H         28.90162       53.88896       71.29443
H         29.46891       51.51436       72.77558
H         27.16814       51.42142       71.97530
H         26.62274       52.89938       71.10305
H         27.88672       51.84125       70.39089
N         25.80854       54.60981       73.76241
C         24.60634       55.39957       73.51316
C         24.80703       56.84136       73.99332
O         24.34390       57.16876       75.07660
C         23.40513       54.69524       74.22945
C         22.04880       55.28095       73.83191
O         23.39238       53.31232       73.95922
H         25.74197       53.87833       74.48291
H         24.37024       55.37491       72.42627
H         23.53382       54.80378       75.32701
H         23.47751       53.18724       72.97845
H         21.24378       54.74882       74.38337
H         21.98946       56.36166       74.06907
H         21.88051       55.13552       72.74304
N         25.50297       57.75289       73.24223
C         25.83459       59.11677       73.66357
C         26.82899       59.08768       74.81263
O         26.57868       58.44259       75.81865
C         24.58377       59.97023       73.95793
C         23.69734       60.05371       72.70071
C         22.46466       60.95381       72.84922
C         21.48012       60.45194       73.91468
N         20.25053       61.24316       73.89648
H         25.81780       57.48218       72.30297
H         26.34584       59.62138       72.81250
H         24.91255       60.99785       74.23027
H         24.01787       59.55845       74.81524
H         23.36005       59.03506       72.41094
H         24.30699       60.46438       71.86527
H         21.94691       60.95780       71.86491
H         22.77587       61.99626       73.08019
H         21.94479       60.52155       74.92177
H         21.22567       59.38757       73.71389
H         20.46417       62.25195       74.07038
H         19.77455       61.13827       72.97051
H         19.60843       60.89502       74.64435
N         28.00462       59.77124       74.71685
C         29.07323       59.65482       75.70290
C         29.74290       58.28624       75.60537
O         29.75586       57.60173       76.61700
C         30.10556       60.79956       75.58438
C         29.47131       62.14983       75.95587
C         30.46896       63.26617       75.85354
O         31.58955       63.24544       76.60067
O         30.26202       64.20580       75.10254
H         28.14349       60.39534       73.90817
H         28.64137       59.76024       76.72562
H         30.54312       60.85755       74.56893
H         30.93464       60.60505       76.30132
H         29.09887       62.10747       77.00327
H         28.60932       62.36150       75.28739
N         30.32865       57.77402       74.47841
C         30.39882       58.39653       73.17077
H         31.46242       58.51932       72.87822
H         29.89921       57.73948       72.42818
H         29.91595       59.37981       73.11309
H         30.75856       56.83813       74.54682
Ca        29.37507       54.89427       78.57809
O         28.55403       57.00415       80.54636
H         28.03266       56.27209       80.96249
H         29.38241       57.05831       81.08575
O         26.76030       56.23251       77.60702
H         27.60082       56.41632       77.12241
H         26.79621       56.82890       78.39663
O         31.60984       57.44326       78.99452
H         31.31687       58.38739       79.05045
H         32.42878       57.40407       79.54933
O         31.34250       54.83721       80.66501
H         32.20200       55.25842       80.91306
H         31.59544       54.14988       80.00148

Ca 1.0



