%chk=apoCaM-CA-Ng.loop3.water4.frame44.chk
%nprocshared=20
%mem=10GB
%nosave
#b3lyp/svp scf=(tight,noincore,xqc) Test 
#IOP(5/87=12) Density=Current Pop=(MK,readradii) iop(6/33=2) iop(6/42=6)

apoCaM-CA-Ng.loop3.water4.frame44 

   0  1 
C         35.79811       68.64243       60.86292
C         35.26875       69.87096       60.18764
O         34.53423       69.73656       59.22297
H         36.90705       68.64444       60.82378
H         35.46284       68.62142       61.92022
H         35.42715       67.72545       60.35406
N         35.61631       71.11332       60.63963
C         35.14733       72.37139       60.05337
C         35.60362       72.56426       58.60720
O         35.12501       73.48977       57.96548
C         33.61189       72.50584       60.17929
C         33.16721       72.40948       61.61373
O         33.62082       73.29423       62.52217
O         32.38863       71.53742       61.96193
H         36.24409       71.17514       61.45553
H         35.57900       73.21788       60.63238
H         33.10412       71.74150       59.56219
H         33.29154       73.49833       59.79519
N         36.55838       71.77120       58.03475
C         36.98580       71.92729       56.64475
C         35.92613       71.47226       55.65093
O         36.16542       71.62924       54.46038
C         38.27237       71.11321       56.38291
C         39.49287       71.73051       57.07716
C         40.74037       70.86846       56.83062
C         42.03453       71.50909       57.35776
N         42.42489       72.68599       56.57566
H         37.02800       71.05763       58.60949
H         37.20681       73.00016       56.44588
H         38.50181       71.11538       55.29380
H         38.11517       70.05756       56.69881
H         39.32679       71.82353       58.17227
H         39.62940       72.74646       56.65275
H         40.86817       70.66290       55.74527
H         40.58519       69.89691       57.34926
H         42.84697       70.75394       57.27439
H         41.92397       71.77724       58.43157
H         41.72096       73.45163       56.66136
H         43.34040       73.04323       56.93156
H         42.54087       72.42353       55.56916
N         34.75656       70.88459       56.03669
C         33.76808       70.38528       55.09153
C         32.47219       71.15444       55.26579
O         32.25968       71.75346       56.31300
C         33.62023       68.86438       55.31968
C         32.83356       68.14084       54.26154
O         31.52636       68.38382       54.07828
O         33.38009       67.29060       53.57673
H         34.55236       70.75335       57.03314
H         34.12614       70.54937       54.05193
H         33.17750       68.66681       56.32087
H         34.64580       68.43089       55.31564
N         31.58820       71.25441       54.23587
C         30.36806       72.03755       54.31967
C         29.33399       71.47193       55.27134
O         28.31528       72.12693       55.44063
H         31.82087       70.81310       53.33596
H         29.89745       72.09548       53.31505
H         30.63196       73.07264       54.63096
N         29.49857       70.27758       55.91695
C         28.51545       69.73499       56.84639
C         29.07733       69.58617       58.24840
O         28.28457       69.31268       59.13236
C         28.03898       68.34719       56.36964
C         27.46848       68.36672       54.97686
N         26.37504       69.10516       54.68214
O         27.99495       67.69322       54.10477
H         30.34044       69.71693       55.74620
H         27.64280       70.41945       56.92057
H         27.26367       67.95462       57.06354
H         28.90508       67.64631       56.39476
H         25.90966       69.67179       55.40513
H         25.98998       69.10455       53.72607
N         30.40848       69.72878       58.52965
C         31.01537       69.53063       59.83717
C         30.93866       68.09616       60.30014
O         31.92572       67.38061       60.19887
H         31.06234       69.98168       57.77920
H         30.59150       70.22271       60.59381
H         32.09004       69.76777       59.73723
N         29.79481       67.62095       60.85808
C         29.59509       66.26747       61.33593
C         29.67260       65.27390       60.17900
O         29.00067       65.50628       59.18373
C         30.46290       66.02936       62.60498
C         30.18415       64.74078       63.35116
C         28.88116       64.40070       63.75350
C         31.24351       63.86759       63.66264
C         28.64089       63.20276       64.43224
C         31.00167       62.67583       64.34906
C         29.69742       62.33719       64.73255
O         29.44909       61.18758       65.39113
H         29.00396       68.26099       60.99192
H         28.53729       66.22104       61.67185
H         30.23557       66.85695       63.31128
H         31.54155       66.10234       62.34907
H         28.04648       65.05305       63.53837
H         32.25935       64.10875       63.37321
H         27.63063       62.94846       64.72611
H         31.82902       62.01670       64.58043
H         30.15347       60.56445       65.62011
N         30.36063       64.10091       60.27664
C         30.25019       62.99562       59.32035
C         28.77233       62.72375       59.09369
O         28.34269       62.77853       57.94990
C         30.99401       61.75317       59.90097
C         32.51822       62.04072       60.01462
C         30.77448       60.46766       59.07710
C         33.15855       61.28385       61.17539
H         30.89582       63.92845       61.12730
H         30.71175       63.27393       58.34560
H         30.56525       61.59096       60.91642
H         32.72096       63.10994       60.22452
H         33.02478       61.81477       59.04965
H         31.16487       60.58786       58.04453
H         31.28307       59.60444       59.55531
H         29.70270       60.21343       59.00202
H         34.24355       61.51589       61.21506
H         32.70246       61.63442       62.12720
H         33.01833       60.18910       61.08866
N         27.91555       62.55409       60.14519
C         26.47092       62.47550       59.95495
C         26.04055       61.16953       59.32010
O         24.96516       61.14514       58.73997
C         25.71380       62.69062       61.27031
O         26.05207       63.94200       61.80245
H         28.29491       62.59375       61.10423
H         26.17724       63.31111       59.27741
H         25.98306       61.88605       61.99016
H         24.61871       62.66460       61.06598
H         25.52939       64.03710       62.64014
N         26.82473       60.04865       59.37822
C         26.48510       58.78519       58.72570
C         26.39891       58.93746       57.21126
O         25.91486       58.01752       56.55968
C         25.18941       58.20466       59.31844
H         27.70397       60.08009       59.90829
H         27.28192       58.03903       58.94034
H         25.29974       58.08446       60.41718
H         24.30672       58.84270       59.11575
H         24.98853       57.20120       58.88520
N         26.86162       60.05398       56.57442
C         26.70582       60.30143       55.15157
C         28.03691       60.40970       54.44630
O         29.06938       60.53419       55.09678
C         25.93417       61.61086       54.96657
H         27.34124       60.78161       57.11622
H         26.13808       59.46948       54.68124
H         24.94971       61.54663       55.47529
H         26.50548       62.45339       55.41986
H         25.77284       61.83287       53.89184
N         28.07578       60.32531       53.08555
C         29.28647       60.41424       52.27952
C         30.33428       59.44693       52.80211
O         31.44496       59.85604       53.11132
C         29.77893       61.87768       52.21194
C         28.71238       62.78458       51.57352
C         29.15728       64.21385       51.52683
O         28.43499       65.15817       52.15885
O         30.15794       64.53093       50.90380
H         27.19123       60.14713       52.58254
H         29.03750       60.10828       51.23843
H         30.70118       61.92547       51.59069
H         30.02072       62.24416       53.23313
H         27.77164       62.73122       52.16233
H         28.49825       62.44221       50.53749
N         30.01031       58.13374       52.96500
C         30.91559       57.15097       53.52426
H         31.90821       57.58098       53.77380
H         30.47241       56.74051       54.45642
H         31.05852       56.32482       52.79844
H         29.06268       57.81603       52.71179
Ca        30.43560       67.22636       52.48601
O         30.58979       65.27383       54.76090
H         31.13579       65.58053       55.52784
H         30.31111       64.35500       55.00164
O         31.94505       66.88670       49.87636
H         32.15325       67.85251       49.81413
H         32.78631       66.47085       50.19212
O         30.51551       69.86248       51.30781
H         31.42164       70.12828       51.01045
H         29.91830       70.57388       50.96745
O         28.01521       68.10814       50.82741
H         28.08435       68.26259       49.85193
H         27.37897       68.79676       51.14559

Ca 1.0



