%chk=apoCaM-CA-Ng.loop3.water3.frame174.chk
%nprocshared=20
%mem=10GB
%nosave
#b3lyp/svp scf=(tight,noincore,xqc) Test 
#IOP(5/87=12) Density=Current Pop=(MK,readradii) iop(6/33=2) iop(6/42=6)

apoCaM-CA-Ng.loop3.water3.frame174 

   0  1 
C         49.23727       44.27630       16.70930
C         47.94165       43.92843       16.03797
O         47.28970       44.82920       15.53460
H         49.92274       44.74883       15.97528
H         49.04194       44.99187       17.53628
H         49.73113       43.37676       17.13255
N         47.50239       42.63461       15.99798
C         46.24507       42.19132       15.39164
C         45.00889       42.66125       16.15671
O         43.91066       42.34151       15.72253
C         46.16206       42.57515       13.89297
C         47.29435       42.02285       13.06571
O         47.31430       42.23552       11.86488
O         48.27793       41.28643       13.61985
H         48.09953       41.90381       16.41406
H         46.21295       41.07967       15.44275
H         46.13114       43.67655       13.76823
H         45.21676       42.16942       13.47188
N         45.09708       43.37362       17.31833
C         43.94160       43.80297       18.10126
C         43.87677       45.32628       18.18409
O         43.00619       45.84437       18.87003
C         44.04825       43.19734       19.51826
C         44.22253       41.66905       19.48240
C         44.33344       41.08782       20.89850
C         44.59260       39.56998       20.90861
N         45.90256       39.22169       20.34941
H         46.02049       43.61071       17.70569
H         42.99227       43.44836       17.64326
H         43.13594       43.45679       20.09989
H         44.93079       43.63640       20.03520
H         45.15292       41.44352       18.92506
H         43.36392       41.19983       18.95398
H         43.37813       41.28595       21.43183
H         45.15307       41.59222       21.45551
H         43.78886       39.03914       20.35226
H         44.56127       39.22658       21.96618
H         46.05934       38.19465       20.46513
H         45.94894       39.43889       19.32934
H         46.65995       39.73380       20.85802
N         44.77268       46.10792       17.51157
C         44.82715       47.56095       17.59526
C         43.52848       48.18511       17.09936
O         42.84456       47.59121       16.27661
C         46.06638       48.04615       16.80006
C         46.38264       49.50091       16.95950
O         47.55394       49.87693       17.50797
O         45.61071       50.34873       16.55381
H         45.47948       45.65525       16.92458
H         44.97751       47.82591       18.66586
H         45.94467       47.80720       15.72177
H         46.95122       47.48184       17.17141
N         43.11145       49.37870       17.60631
C         41.85359       50.02053       17.25727
C         41.74670       50.33952       15.78484
O         40.77474       49.93448       15.16316
H         43.70410       49.85217       18.30540
H         41.77635       50.97364       17.82310
H         41.00467       49.37268       17.56846
N         42.72292       51.05275       15.15874
C         42.68161       51.41176       13.74345
C         43.64595       50.57801       12.91550
O         43.74042       50.81911       11.71900
C         42.97033       52.91927       13.55122
C         44.41368       53.28811       13.82647
N         45.20694       53.75612       12.83439
O         44.87568       53.15411       14.94667
H         43.54788       51.31333       15.70941
H         41.66536       51.21926       13.33517
H         42.29184       53.52495       14.18949
H         42.73877       53.17259       12.49354
H         44.84845       53.87451       11.87581
H         46.19253       53.98773       13.02297
N         44.37025       49.55924       13.45963
C         45.28282       48.75906       12.67239
C         46.49865       49.55485       12.27917
O         46.75196       49.71802       11.09435
H         44.25202       49.30403       14.44901
H         44.75056       48.35088       11.78514
H         45.63743       47.89502       13.27527
N         47.34557       50.00578       13.24746
C         48.64712       50.60217       12.96608
C         48.86013       51.90051       13.71948
O         48.02338       52.29647       14.51654
C         49.71804       49.58374       13.41781
C         49.59282       48.30404       12.63275
C         49.90977       48.29154       11.26542
C         49.14549       47.12280       13.24864
C         49.78297       47.11656       10.52323
C         49.00980       45.94900       12.50079
C         49.33055       45.94364       11.13434
O         49.20814       44.82194       10.39819
H         47.11170       49.80426       14.23141
H         48.76258       50.81443       11.88083
H         49.56685       49.38822       14.50406
H         50.75181       49.97055       13.29376
H         50.25921       49.19237       10.77611
H         48.88655       47.11341       14.30061
H         50.03451       47.11952        9.47033
H         48.65365       45.04713       12.98257
H         48.89980       43.98894       10.77891
N         50.02358       52.58776       13.53342
C         50.42190       53.74448       14.32973
C         49.43061       54.88317       14.13848
O         48.86431       55.33272       15.12535
C         51.89615       54.17698       14.02541
C         52.92753       53.00751       14.12182
C         52.34501       55.31332       14.96837
C         52.99453       52.30198       15.48177
H         50.66935       52.22873       12.81872
H         50.40738       53.44255       15.39702
H         51.94201       54.55889       12.98146
H         53.93903       53.40237       13.88263
H         52.72005       52.23485       13.35655
H         53.37938       55.63327       14.71859
H         51.69597       56.19736       14.88578
H         52.31269       54.99716       16.03047
H         52.02093       51.83609       15.73774
H         53.75540       51.49445       15.43606
H         53.29585       52.99969       16.28822
N         49.13257       55.37084       12.89643
C         48.12337       56.41339       12.69829
C         48.55116       57.76474       13.24749
O         47.69617       58.63027       13.37360
C         47.75062       56.55880       11.21780
O         47.27331       55.33520       10.73087
H         49.58285       54.93820       12.07539
H         47.20662       56.09777       13.24425
H         48.64660       56.87286       10.63760
H         46.95113       57.32949       11.12197
H         46.96661       55.50811        9.80341
N         49.84345       58.01793       13.60799
C         50.29121       59.24927       14.24361
C         49.53350       59.44061       15.54285
O         48.88733       60.46279       15.73191
C         50.17606       60.44635       13.28626
H         50.55355       57.29458       13.45300
H         51.37128       59.14309       14.49228
H         50.77078       60.25085       12.36879
H         49.12512       60.64396       12.99334
H         50.58123       61.35944       13.77331
N         49.56835       58.45703       16.48757
C         48.82476       58.53363       17.74369
C         49.20319       57.41599       18.70990
O         49.97008       56.52803       18.36220
C         47.31402       58.49997       17.46921
H         50.16062       57.63628       16.29243
H         49.09828       59.48710       18.24666
H         47.05677       57.55995       16.94767
H         46.73018       58.56169       18.41008
H         46.99565       59.34403       16.82628
N         48.75083       57.46533       19.99911
C         49.15763       56.54698       21.06139
C         50.65596       56.62061       21.36413
O         51.10954       55.85764       22.20698
C         48.71178       55.08985       20.79158
C         47.18650       54.95975       20.66668
C         46.76819       53.51561       20.66211
O         47.05768       52.72628       21.71504
O         46.13554       53.05745       19.72730
H         48.11797       58.23366       20.26807
H         48.64623       56.85537       22.00084
H         49.03043       54.48080       21.66665
H         49.20675       54.67014       19.89415
H         46.83971       55.47226       19.74204
H         46.69857       55.43809       21.54215
N         51.48714       57.52320       20.76388
C         52.90226       57.57458       21.05534
H         53.06128       57.77511       22.13567
H         53.37956       56.61105       20.77760
H         53.37886       58.38856       20.46793
H         51.12940       58.21375       20.09238
Ca        46.87494       52.82043       17.05850
O         49.64995       53.04048       17.85634
H         50.57665       53.20709       18.15974
H         49.32449       53.92743       17.55844
O         45.59702       55.53402       16.41195
H         45.53797       55.83555       15.47105
H         46.55763       55.33699       16.54454
O         43.74181       53.07003       17.74554
H         43.54863       52.89370       18.70005
H         43.53809       54.03075       17.62222

Ca 1.0



