%chk=apoCaM-CA-Ng.loop3.water6.frame467.chk
%nprocshared=20
%mem=10GB
%nosave
#b3lyp/svp scf=(tight,noincore,xqc) Test 
#IOP(5/87=12) Density=Current Pop=(MK,readradii) iop(6/33=2) iop(6/42=6)

apoCaM-CA-Ng.loop3.water6.frame467 

   0  1 
C         51.76959       35.38043      112.71144
C         51.49147       34.82834      114.07668
O         51.09725       35.57582      114.95938
H         52.83560       35.20237      112.45508
H         51.12556       34.87322      111.96346
H         51.57748       36.47185      112.67539
N         51.70074       33.50469      114.31769
C         51.52876       32.85457      115.61170
C         52.49311       33.44923      116.62854
O         52.08160       33.85007      117.70938
C         50.05076       32.88344      116.08214
C         49.08834       32.22082      115.12712
O         47.77859       32.18046      115.43686
O         49.47081       31.71552      114.08300
H         52.03504       32.91604      113.53853
H         51.81712       31.78523      115.49530
H         49.71915       33.93059      116.23931
H         49.97311       32.35062      117.05468
N         53.82263       33.52181      116.32754
C         54.83928       34.00817      117.26201
C         54.64781       35.46172      117.67460
O         55.31511       35.88286      118.61039
C         56.25024       33.88076      116.64654
C         56.66538       32.42724      116.38522
C         58.04341       32.38225      115.70675
C         58.54238       30.95101      115.45501
N         58.85427       30.24741      116.70104
H         54.11836       33.18531      115.39891
H         54.77884       33.38533      118.18255
H         57.00043       34.31727      117.34312
H         56.27709       34.46376      115.69801
H         55.93629       31.91722      115.72127
H         56.68368       31.90142      117.36110
H         58.79693       32.92848      116.31512
H         57.95676       32.89529      114.72304
H         59.47083       31.01191      114.84522
H         57.78639       30.38117      114.87047
H         59.22673       29.29853      116.47049
H         59.58519       30.77361      117.23356
H         58.00254       30.12735      117.29211
N         53.80057       36.30220      117.01874
C         53.61975       37.69383      117.41057
C         53.01176       37.76947      118.79988
O         52.04972       37.06493      119.07503
C         52.71701       38.42227      116.40238
C         52.64355       39.89810      116.69314
O         53.73326       40.67997      116.60926
O         51.58259       40.41119      116.98789
H         53.28989       35.95661      116.19632
H         54.60841       38.20625      117.38394
H         51.70131       37.96965      116.42268
H         53.12730       38.30400      115.37630
N         53.50316       38.65279      119.70902
C         52.98440       38.81197      121.05580
C         51.49636       39.08595      121.09287
O         50.80411       38.41497      121.84504
H         54.27948       39.27086      119.42722
H         53.51196       39.66688      121.53138
H         53.20741       37.90268      121.65672
N         50.92804       40.04299      120.30435
C         49.50652       40.38136      120.38033
C         48.65895       39.64426      119.34705
O         47.44275       39.76543      119.42341
C         49.32629       41.90722      120.25790
C         50.07828       42.66570      121.32511
N         49.77486       42.50665      122.63443
O         50.96324       43.44346      121.00143
H         51.52106       40.54506      119.62792
H         49.10700       40.06013      121.36691
H         48.25118       42.17737      120.33081
H         49.69091       42.21718      119.25603
H         49.02277       41.86755      122.92868
H         50.28850       43.03194      123.35778
N         49.19967       38.84143      118.38471
C         48.41300       38.03159      117.46230
C         48.61628       38.40034      116.00399
O         48.24515       37.61399      115.14952
H         50.22160       38.75868      118.31323
H         47.32237       38.07575      117.67513
H         48.73275       36.97740      117.60565
N         49.11639       39.61694      115.64560
C         49.26588       40.05191      114.25771
C         49.55282       41.53900      114.23268
O         50.42127       42.01149      114.94865
C         50.36129       39.29662      113.47443
C         50.35752       39.77771      112.03158
C         49.22498       39.57331      111.22001
C         51.45543       40.47534      111.49971
C         49.18326       40.07409      109.91630
C         51.41036       40.97856      110.19348
C         50.26990       40.78435      109.40013
O         50.20269       41.27983      108.14759
H         49.30271       40.29369      116.39429
H         48.29352       39.87857      113.75033
H         50.17510       38.20372      113.48940
H         51.34626       39.48648      113.95272
H         48.36410       39.03891      111.60031
H         52.33675       40.65013      112.10016
H         48.29838       39.92029      109.31110
H         52.25679       41.52915      109.80258
H         50.92230       41.79541      107.75668
N         48.81717       42.33951      113.41891
C         48.83103       43.78726      113.53451
C         48.14668       44.11838      114.84426
O         48.65255       44.95621      115.57764
C         48.14697       44.43947      112.30050
C         48.98669       44.09192      111.03645
C         48.04172       45.96846      112.48139
C         48.38062       44.57047      109.71998
H         48.14259       41.90516      112.77292
H         49.87775       44.16994      113.54888
H         47.11863       44.02809      112.19551
H         49.09230       42.99094      110.95044
H         50.00975       44.51957      111.13569
H         49.04997       46.42253      112.58983
H         47.52256       46.43824      111.62293
H         47.44439       46.22125      113.38069
H         48.31362       45.67549      109.67946
H         49.03378       44.24316      108.88260
H         47.37372       44.12547      109.57995
N         47.05038       43.40925      115.25477
C         46.44476       43.59874      116.56496
C         45.73686       44.93595      116.66283
O         45.46185       45.36815      117.77172
C         45.46696       42.45534      116.89327
O         46.09220       41.20433      116.77004
H         46.68311       42.65989      114.64676
H         47.26628       43.56424      117.31739
H         44.61533       42.48396      116.18048
H         45.05475       42.56589      117.92082
H         46.86407       41.20296      117.39224
N         45.42339       45.64816      115.53577
C         44.82762       46.98031      115.49918
C         45.78693       48.08069      115.95063
O         45.43385       49.24408      115.81207
C         43.48759       47.02110      116.24843
H         45.60390       45.22248      114.61596
H         44.60969       47.20089      114.42977
H         43.61742       46.87033      117.33879
H         42.99505       48.00451      116.09991
H         42.81239       46.22984      115.85708
N         47.01821       47.80704      116.47239
C         47.98472       48.82768      116.84769
C         48.56586       49.48884      115.61500
O         49.06546       48.78369      114.74868
C         49.13387       48.19145      117.64208
H         47.30063       46.83451      116.62376
H         47.50617       49.56837      117.52643
H         49.66337       47.42343      117.03758
H         49.86184       48.97230      117.95028
H         48.73310       47.70751      118.55856
N         48.59005       50.84758      115.50233
C         49.23480       51.56954      114.40833
C         48.53772       51.29012      113.08990
O         49.15886       50.79949      112.15537
C         50.75693       51.27232      114.34477
C         51.47445       51.59663      115.66265
C         52.94942       51.33501      115.54655
O         53.53914       50.42485      116.34510
O         53.62226       51.95034      114.73441
H         48.17007       51.41209      116.25638
H         49.12941       52.66085      114.60057
H         51.19922       51.89355      113.53425
H         50.94175       50.20724      114.09005
H         51.05937       50.96411      116.47683
H         51.31812       52.66402      115.92813
N         47.22509       51.61162      112.94103
C         46.52117       51.40307      111.69482
H         45.46967       51.74629      111.79193
H         47.00974       51.98469      110.88334
H         46.52508       50.32435      111.43124
H         46.71289       52.03128      113.73176
Ca        53.33409       42.89412      116.85668
O         53.00598       45.73413      118.30053
H         53.37679       46.30773      117.58389
H         53.78431       45.22308      118.63643
O         53.67383       42.14105      119.73932
H         53.37634       43.07045      119.90329
H         54.66185       42.19567      119.72788
O         53.82425       42.47471      113.90330
H         53.85704       41.48528      113.88998
H         53.25436       42.71741      113.13112
O         56.07382       43.59701      117.52106
H         56.04272       44.32287      116.84820
H         56.20608       42.77172      116.98965
O         52.38542       45.34038      114.96220
H         51.79922       46.13829      114.95035
H         52.39160       45.02247      114.02493
O         50.35383       44.10501      117.70108
H         49.64781       44.63372      118.15161
H         50.77583       44.73969      117.07085

Ca 1.0



