%chk=apoCaM-CA-Ng.loop2.water7.frame68.chk
%nprocshared=20
%mem=10GB
%nosave
#b3lyp/svp scf=(tight,noincore,xqc) Test 
#IOP(5/87=12) Density=Current Pop=(MK,readradii) iop(6/33=2) iop(6/42=6)

apoCaM-CA-Ng.loop2.water7.frame68 

   -2  1 
C         46.39392       42.96441       89.54194
C         47.33547       42.68433       90.67500
O         48.53903       42.78464       90.48111
H         45.70935       43.79275       89.81878
H         46.95499       43.25525       88.62717
H         45.79936       42.05386       89.31862
N         46.84763       42.32026       91.89686
C         47.70673       42.01666       93.04134
C         47.60279       40.56494       93.49058
O         48.44581       40.15106       94.27359
C         47.44490       43.00184       94.19903
C         46.06369       42.94309       94.80802
O         45.75452       43.78916       95.80818
O         45.22392       42.14505       94.42248
H         45.82463       42.26101       92.00638
H         48.76880       42.15250       92.74001
H         47.61313       44.03238       93.81829
H         48.18336       42.81178       95.00742
N         46.64303       39.71959       93.00655
C         46.62124       38.28001       93.23956
C         47.85744       37.67809       92.60530
O         48.61029       36.95306       93.24078
C         46.43522       37.92306       94.72191
H         45.91967       40.07974       92.36977
H         45.74631       37.86192       92.69217
H         46.35595       36.82048       94.83534
H         47.28319       38.27222       95.34418
H         45.49821       38.38068       95.10351
N         48.12601       38.00808       91.31218
C         49.27048       37.56626       90.53609
C         50.58308       37.97974       91.19238
O         51.49144       37.16384       91.28398
C         49.19813       36.04619       90.24052
C         47.90948       35.59348       89.59552
O         46.99829       36.37359       89.36882
O         47.75473       34.29452       89.27814
H         47.47664       38.65054       90.83091
H         49.21949       38.09750       89.55905
H         49.31925       35.47472       91.18457
H         50.03335       35.77784       89.55774
N         50.75796       39.24687       91.67707
C         52.02944       39.69415       92.23267
C         53.08167       39.90280       91.15186
O         54.24737       40.05723       91.48541
H         49.96847       39.90943       91.66481
H         52.37236       38.94212       92.97861
H         51.90154       40.65902       92.76767
N         52.73221       39.93558       89.83354
C         53.67077       40.03498       88.71917
C         54.47248       41.32848       88.71328
O         53.89753       42.40680       88.69028
C         52.90142       39.92329       87.38666
C         52.20171       38.58875       87.28157
N         50.85268       38.51454       87.20837
O         52.86402       37.56168       87.27510
H         51.73460       39.85109       89.59519
H         54.37195       39.17280       88.77295
H         53.60410       40.01758       86.53091
H         52.16578       40.75656       87.32123
H         50.27260       39.36561       87.22678
H         50.38437       37.59840       87.14685
N         55.83286       41.26704       88.66881
C         56.71832       42.41405       88.55324
C         56.58690       43.12585       87.21957
O         56.61423       42.46956       86.18773
H         56.28458       40.34035       88.70088
H         57.76205       42.03246       88.59165
H         56.58687       43.10459       89.41384
N         56.55221       44.48948       87.16830
C         56.60380       45.24998       85.91435
C         55.26808       45.28922       85.16484
O         55.21750       45.91699       84.11688
C         57.14768       46.69386       86.15819
C         56.25290       47.59516       87.02541
O         58.45438       46.64587       86.67894
H         56.62380       44.99329       88.06348
H         57.35750       44.77504       85.24626
H         57.22530       47.19929       85.17029
H         58.40255       46.38061       87.63311
H         55.26894       47.73389       86.54211
H         56.10940       47.18252       88.04469
H         56.72006       48.59821       87.12325
N         54.14784       44.66987       85.63995
C         52.82386       44.77724       85.01597
C         52.32753       43.41373       84.55397
O         53.05434       42.43931       84.69365
C         51.83300       45.46627       86.00832
C         51.63984       44.64582       87.31407
C         52.31247       46.89746       86.29764
C         50.63096       45.25534       88.28491
H         54.21935       44.11599       86.50042
H         52.86687       45.40814       84.10079
H         50.84698       45.56355       85.50880
H         52.59680       44.54970       87.86350
H         51.28048       43.62778       87.05024
H         52.46841       47.45125       85.34651
H         51.56187       47.46500       86.88165
H         53.25904       46.87392       86.86892
H         49.64221       45.37202       87.79566
H         50.52327       44.58627       89.16443
H         50.98334       46.23809       88.65972
N         51.07944       43.27112       84.00361
C         50.55243       41.98553       83.56372
C         49.98331       42.08989       82.14628
O         48.86803       41.65695       81.89272
C         49.55153       41.48556       84.62646
C         49.05289       40.09489       84.36432
O         47.73073       39.86167       84.26711
O         49.84036       39.16733       84.26902
H         50.45630       44.08783       83.93534
H         51.37951       41.24314       83.52061
H         48.69603       42.19088       84.70448
H         50.07258       41.46704       85.60951
N         50.73839       42.65265       81.16238
C         50.39746       42.65528       79.73828
C         49.02286       43.27001       79.43271
O         48.79219       44.39928       79.83904
C         51.47272       43.45519       78.96692
C         51.34580       43.29583       77.47357
C         51.88142       42.15815       76.84647
C         50.70890       44.27597       76.69459
C         51.78763       42.00705       75.46056
C         50.60482       44.11392       75.30920
C         51.14754       42.98284       74.69243
H         51.64582       43.05687       81.44171
H         50.44365       41.60053       79.40364
H         52.49708       43.13112       79.25451
H         51.39426       44.52760       79.25401
H         52.38279       41.39625       77.43082
H         50.28415       45.15682       77.15953
H         52.21300       41.13401       74.98263
H         50.10591       44.86650       74.71274
H         51.07357       42.86265       73.61945
N         48.08966       42.62699       78.65265
C         46.81635       43.20009       78.22132
C         45.91723       43.69902       79.33413
O         45.46143       44.83232       79.27075
C         46.12307       42.03367       77.49442
C         47.29492       41.32582       76.87107
C         48.30743       41.34065       78.01350
H         47.03206       44.02343       77.50278
H         45.69015       41.31288       78.22464
H         45.31661       42.33891       76.79382
H         47.08294       40.31850       76.45351
H         47.67264       41.98025       76.05133
H         48.12693       40.53679       78.76004
H         49.30823       41.23536       77.54787
N         45.57549       42.87346       80.35971
C         44.58511       43.21061       81.38182
C         45.00975       44.35890       82.28964
O         44.19706       44.76766       83.10879
C         44.31237       41.96709       82.24719
C         43.67828       40.81137       81.44299
C         43.73619       39.52207       82.20901
O         44.37698       39.47324       83.39314
O         43.29713       38.49840       81.71107
H         46.00523       41.93604       80.37373
H         43.63804       43.50447       80.87550
H         43.62586       42.20255       83.09090
H         45.29371       41.65584       82.67139
H         44.23267       40.62531       80.50056
H         42.63093       41.07392       81.17758
N         46.24506       44.92970       82.22805
C         46.62167       46.02646       83.09243
H         47.66403       46.34053       82.87339
H         45.94582       46.89170       82.92137
H         46.55889       45.71081       84.15549
H         46.94884       44.58513       81.56522
Ca        45.15810       37.56240       84.27285
O         47.50550       37.56417       86.51231
H         47.73522       36.61918       86.69841
H         46.87698       37.81522       87.23390
O         42.73076       36.86891       85.60946
H         43.30223       36.07598       85.76907
H         43.08613       37.55668       86.22705
O         45.85599       34.89804       84.89272
H         46.57149       34.27163       84.62002
H         45.41131       34.45952       85.66011
O         45.65162       35.96179       81.69782
H         44.73451       36.31616       81.80929
H         45.82224       36.02262       80.72489
O         47.23602       39.02925       81.56873
H         46.98333       38.51630       80.76159
H         48.22630       39.02099       81.56770
O         48.25677       36.31013       83.64682
H         48.56394       36.57822       82.74501
H         48.91900       36.70842       84.26485
O         44.86666       39.78515       86.34565
H         44.55491       40.71552       86.21559
H         45.45482       39.82755       87.14032

Ca 1.0



