%chk=apoCaM-CA-Ng.loop2.water5.frame1333.chk
%nprocshared=20
%mem=10GB
%nosave
#b3lyp/svp scf=(tight,noincore,xqc) Test 
#IOP(5/87=12) Density=Current Pop=(MK,readradii) iop(6/33=2) iop(6/42=6)

apoCaM-CA-Ng.loop2.water5.frame1333 

   -2  1 
C         62.05498       65.37068       28.99510
C         60.92558       66.13895       28.34790
O         61.22819       66.86708       27.41382
H         62.80256       66.09023       29.38821
H         61.78903       64.69425       29.82064
H         62.54352       64.74277       28.22050
N         59.60820       66.06928       28.71321
C         59.04493       65.27258       29.80427
C         58.32722       66.11578       30.85385
O         57.95496       65.54261       31.86918
C         58.13148       64.15497       29.24799
C         56.94307       64.62385       28.45198
O         56.71549       65.93009       28.24338
O         56.17647       63.80270       27.97597
H         58.95873       66.63126       28.14533
H         59.83867       64.75837       30.36270
H         57.75887       63.53778       30.09469
H         58.74244       63.49972       28.59098
N         58.09793       67.45745       30.70891
C         57.49400       68.26987       31.76065
C         56.10019       68.76719       31.40799
O         55.51320       69.42173       32.25961
C         58.42901       69.44001       32.08897
H         58.36714       67.93852       29.83953
H         57.37256       67.67410       32.69161
H         58.56248       70.09414       31.20060
H         58.01894       70.04960       32.92282
H         59.42321       69.05435       32.40112
N         55.48065       68.48123       30.22010
C         54.11019       68.89702       29.93366
C         53.14474       67.71369       29.69264
O         53.62896       66.41573       29.83695
C         54.03543       69.89504       28.74930
C         54.78449       69.58515       27.45626
O         55.53184       70.44199       27.01091
O         54.65627       68.43611       26.75089
H         55.97716       67.94288       29.50016
H         53.68405       69.43612       30.80794
H         54.43018       70.86890       29.11694
H         52.96487       70.06431       28.50488
N         51.81393       67.89034       30.28687
C         50.83782       66.86435       29.87844
C         50.54976       66.84227       28.38995
O         51.21513       67.52583       27.62354
H         51.43853       68.82952       30.01925
H         49.88725       67.08652       30.40752
H         51.16755       65.85440       30.20806
N         49.53130       66.06732       27.91468
C         49.20344       65.96926       26.49209
C         48.87000       67.32347       25.88217
O         48.72266       68.30578       26.59776
C         48.00525       65.01519       26.26587
C         48.28242       63.60495       26.72124
N         47.52291       63.02315       27.67927
O         49.19012       62.97272       26.20356
H         48.98089       65.52041       28.59524
H         50.09829       65.57734       25.96364
H         47.75183       64.96572       25.18586
H         47.11904       65.42438       26.80061
H         46.74591       63.53345       28.12385
H         47.70897       62.05354       27.97578
N         48.75099       67.43523       24.52819
C         48.44194       68.67997       23.84449
C         49.51984       69.73859       24.01608
O         50.50672       69.48337       24.69153
H         48.87617       66.59328       23.94605
H         47.47122       69.06430       24.22467
H         48.34193       68.46556       22.75881
N         49.42030       70.97746       23.44680
C         48.31368       71.41877       22.59849
C         48.77964       71.84231       21.20326
O         47.91987       72.12909       20.38283
C         47.56243       72.58390       23.28491
C         46.98739       72.16012       24.64293
O         48.43465       73.67177       23.45853
H         50.17107       71.65643       23.65026
H         47.58681       70.59698       22.44247
H         46.71444       72.88324       22.62502
H         47.86968       74.47198       23.62000
H         46.42923       73.00593       25.09683
H         46.28739       71.30757       24.51583
H         47.79765       71.86257       25.34218
N         50.10294       71.92182       20.86126
C         50.59219       72.36385       19.55376
C         51.44204       71.23634       18.96825
O         52.28406       70.72773       19.69516
C         51.43702       73.66217       19.71625
C         50.69115       74.77855       20.49891
C         51.92166       74.18907       18.35042
C         49.39120       75.28163       19.86140
H         50.82120       71.68668       21.55867
H         49.73951       72.60153       18.89161
H         52.34024       73.41477       20.31745
H         51.37544       75.64656       20.61794
H         50.45467       74.40977       21.51975
H         52.55167       75.09282       18.48657
H         52.53505       73.42697       17.82709
H         51.06739       74.45233       17.69295
H         48.95101       76.06894       20.50919
H         49.57364       75.72410       18.86210
H         48.64598       74.46991       19.76845
N         51.30592       70.74208       17.70187
C         50.50279       71.33200       16.63250
C         51.27598       71.35002       15.31635
O         52.32595       70.72455       15.22739
C         49.15183       70.59373       16.51085
C         49.23882       69.11190       16.23320
O         50.30951       68.55020       16.06482
O         48.10393       68.38973       16.18321
H         51.88126       69.91705       17.46893
H         50.28902       72.39114       16.86126
H         48.53890       71.06629       15.71378
H         48.61232       70.71784       17.47432
N         50.81699       72.06496       14.24641
C         51.45915       72.02873       12.93077
C         52.02551       73.39381       12.55245
O         51.46546       74.38448       13.00782
C         50.41816       71.62471       11.86501
C         49.57142       70.44677       12.28836
C         48.18349       70.61833       12.44919
C         50.14003       69.18802       12.54305
C         47.38020       69.55371       12.85876
C         49.32932       68.12238       12.95267
C         47.95174       68.30579       13.10973
H         49.96508       72.63713       14.36024
H         52.25675       71.26808       12.93762
H         50.91983       71.41202       10.89690
H         49.74343       72.49467       11.70052
H         47.72009       71.57993       12.26436
H         51.20553       69.03363       12.43152
H         46.31486       69.69985       12.98456
H         49.76805       67.15455       13.15550
H         47.32633       67.48368       13.43244
N         53.05561       73.56750       11.65953
C         53.87028       72.52397       11.04042
C         54.58344       71.68247       12.07439
O         54.49857       70.46305       12.02688
C         54.91262       73.30749       10.21956
C         54.15160       74.55857        9.85700
C         53.44736       74.87487       11.17245
H         53.23135       71.91266       10.36623
H         55.75022       73.65220       10.86767
H         55.35251       72.74042        9.37128
H         54.76891       75.38830        9.45131
H         53.38143       74.27789        9.10278
H         54.13144       75.34289       11.91528
H         52.58352       75.54199       10.96158
N         55.26833       72.29696       13.07875
C         55.92844       71.58518       14.16130
C         57.12600       70.82268       13.61265
O         58.01490       71.46036       13.06533
C         56.39214       72.57947       15.25203
C         55.20409       73.31949       15.89917
C         55.67601       74.29781       16.93510
O         55.42790       75.48726       16.81394
O         56.36562       73.86843       18.00878
H         55.28088       73.32791       13.08973
H         55.19221       70.90794       14.64058
H         57.09349       73.32091       14.80699
H         56.93226       72.01809       16.04620
H         54.52260       72.58567       16.37979
H         54.62353       73.87361       15.13143
N         57.25297       69.46822       13.70115
C         56.27294       68.60296       14.32024
H         55.30112       68.68229       13.79064
H         56.61330       67.54748       14.26150
H         56.14603       68.87226       15.38986
H         58.09724       69.02605       13.30500
Ca        54.15318       66.46943       27.68419
O         56.43908       66.92403       24.75687
H         56.77748       67.79453       25.08563
H         55.97664       67.14245       23.90902
O         53.15823       63.60252       28.75871
H         53.73463       63.49486       29.55627
H         52.24714       63.38081       29.07640
O         53.06552       66.77481       24.35370
H         52.44307       66.21181       23.82864
H         53.35819       67.47647       23.71944
O         55.07076       64.04758       24.61737
H         55.46975       63.17795       24.87215
H         55.24655       64.12757       23.64622
O         52.28921       64.00105       25.80422
H         51.81196       63.36625       26.39443
H         51.76208       64.00283       24.96615

Ca 1.0



