%chk=apoCaM-CA-Ng.loop2.water3.frame1292.chk
%nprocshared=20
%mem=10GB
%nosave
#b3lyp/svp scf=(tight,noincore,xqc) Test 
#IOP(5/87=12) Density=Current Pop=(MK,readradii) iop(6/33=2) iop(6/42=6)

apoCaM-CA-Ng.loop2.water3.frame1292 

   -2  1 
C         63.70392       54.45554      124.74352
C         63.86710       55.70937      123.91342
O         65.00370       55.98997      123.56312
H         62.67557       54.15890      125.00128
H         64.12619       53.60147      124.17262
H         64.27118       54.56553      125.68949
N         62.84341       56.51583      123.49801
C         61.42924       56.34600      123.82511
C         60.77271       57.60729      124.39540
O         59.64875       57.48934      124.86467
C         60.69701       55.80825      122.58733
C         60.71679       56.74099      121.41638
O         60.16277       56.35121      120.26812
O         61.15977       57.87445      121.50033
H         63.10175       57.27665      122.85267
H         61.29995       55.59068      124.61258
H         59.63527       55.58756      122.83583
H         61.18136       54.85654      122.28087
N         61.38639       58.83238      124.40341
C         60.82145       60.00581      125.06783
C         60.43154       61.13412      124.11379
O         59.93622       62.14017      124.60345
C         61.85171       60.50881      126.08691
H         62.30754       58.94993      123.96089
H         59.89711       59.73240      125.62110
H         62.10196       59.69807      126.80446
H         62.78619       60.81740      125.56760
H         61.45995       61.37525      126.65944
N         60.61426       61.05846      122.76232
C         60.26792       62.14090      121.83465
C         59.28290       61.67167      120.76153
O         58.88929       60.51390      120.77209
C         61.56575       62.73438      121.25228
C         62.44449       61.70325      120.60603
O         62.04292       61.06226      119.65088
O         63.67886       61.47230      121.09414
H         61.04824       60.21644      122.36458
H         59.75777       62.97077      122.37137
H         62.13333       63.19609      122.09058
H         61.33607       63.54114      120.52546
N         58.79076       62.55348      119.83553
C         57.73601       62.21593      118.88270
C         58.12438       61.18179      117.84592
O         59.28152       60.79340      117.76898
H         59.10942       63.53335      119.86132
H         57.40759       63.12994      118.34203
H         56.86722       61.83372      119.46083
N         57.14912       60.64612      117.04590
C         57.37074       59.54925      116.09999
C         56.89134       59.90384      114.70648
O         56.20167       60.89775      114.52177
C         56.58689       58.29606      116.57063
C         57.16710       57.69196      117.84411
N         56.35350       56.61097      118.38297
O         57.37849       58.65502      118.81637
H         56.18043       60.98014      117.17141
H         58.45498       59.30903      116.03034
H         56.62694       57.49487      115.80190
H         55.52134       58.57016      116.73399
H         56.30197       55.84573      117.67476
H         56.85775       56.22217      119.21424
N         57.23966       59.09938      113.66213
C         56.75937       59.32317      112.30600
C         57.46412       58.45042      111.27272
O         58.38517       57.72771      111.62588
H         57.87081       58.30783      113.85760
H         56.94516       60.37979      112.01770
H         55.66542       59.12413      112.29748
N         57.12444       58.46033      109.94942
C         56.01802       59.22169      109.37664
C         54.95113       58.29729      108.79095
O         53.91689       58.80727      108.38193
C         56.54132       60.21079      108.30904
C         57.57870       61.17484      108.89171
O         57.12522       59.51460      107.23689
H         57.68442       57.87605      109.30812
H         55.51022       59.81772      110.16051
H         55.69219       60.83787      107.94384
H         56.41158       59.36596      106.56280
H         57.90972       61.89001      108.10921
H         57.14378       61.74960      109.73647
H         58.47112       60.62079      109.25424
N         55.11993       56.93887      108.72211
C         54.09649       56.00894      108.24158
C         53.77256       55.00563      109.35231
O         54.57970       54.86976      110.26249
C         54.55499       55.31652      106.91519
C         55.84120       54.46500      107.10841
C         54.72622       56.38336      105.81718
C         56.33145       53.77784      105.83193
H         56.00361       56.52373      109.03980
H         53.16882       56.58133      108.03161
H         53.75422       54.63009      106.57016
H         55.62749       53.67052      107.85558
H         56.67756       55.08718      107.48681
H         54.93293       55.91771      104.83236
H         53.78722       56.96567      105.70121
H         55.55357       57.08004      106.06455
H         56.67086       54.52494      105.08471
H         57.20490       53.13535      106.07247
H         55.53123       53.14802      105.39156
N         52.60076       54.30740      109.43403
C         51.47790       54.42044      108.51333
C         50.90590       53.04303      108.19719
O         50.39759       52.37487      109.08444
C         50.42818       55.41733      109.05856
C         49.86804       55.15747      110.43736
O         49.06444       55.94793      110.90482
O         50.24671       54.10006      111.17913
H         52.47242       53.71607      110.26902
H         51.80921       54.87247      107.56142
H         49.58708       55.47783      108.33499
H         50.91072       56.41903      109.09686
N         50.99116       52.54925      106.92995
C         50.48722       51.23479      106.52529
C         50.96495       50.91522      105.11373
O         50.93398       51.80681      104.27713
C         48.94677       51.12211      106.61186
C         48.18448       52.06477      105.71089
C         47.88464       53.37053      106.13287
C         47.72847       51.62847      104.45338
C         47.13966       54.22341      105.31074
C         46.99457       52.48768      103.63034
C         46.69701       53.78310      104.06004
H         51.47845       53.12810      106.23007
H         50.90409       50.47171      107.21475
H         48.58392       51.24134      107.65451
H         48.67898       50.07892      106.33461
H         48.21024       53.72101      107.10333
H         47.94521       50.62488      104.10813
H         46.89988       55.22446      105.64507
H         46.65143       52.14685      102.66172
H         46.12008       54.44362      103.42530
N         51.41122       49.67352      104.74251
C         51.32363       48.44815      105.52853
C         52.54132       48.20952      106.41413
O         52.72124       47.08000      106.84642
C         51.27538       47.38400      104.41646
C         52.26630       47.93637      103.41350
C         51.85764       49.40245      103.38573
H         50.38532       48.34923      106.11636
H         51.46215       46.33916      104.74465
H         50.26804       47.41421      103.93883
H         53.28319       47.85033      103.86078
H         52.27816       47.44522      102.41806
H         52.71645       50.03756      103.07669
H         50.99869       49.56001      102.69727
N         53.41505       49.20660      106.73437
C         54.66885       48.96233      107.44452
C         55.82087       49.60702      106.67468
O         55.55823       50.35853      105.74609
C         54.57002       49.49934      108.89065
C         53.56962       48.67043      109.71566
C         53.52994       49.12002      111.14736
O         54.64339       49.06527      111.90404
O         52.48429       49.51061      111.64076
H         53.19989       50.17476      106.46040
H         54.87161       47.87073      107.48175
H         54.27574       50.57200      108.88270
H         55.55562       49.42747      109.39208
H         53.87832       47.60160      109.70482
H         52.55433       48.74695      109.26992
N         57.13732       49.37353      106.95341
C         57.64618       48.44444      107.94225
H         58.26431       48.99502      108.68078
H         56.85741       47.88778      108.47911
H         58.28391       47.69260      107.43188
H         57.84446       49.87146      106.39021
Ca        59.51519       58.11157      119.11576
O         61.10238       57.24964      116.31201
H         60.63444       56.47561      116.71493
H         62.06422       57.05299      116.44193
O         63.27255       57.56069      119.07491
H         64.16221       57.80069      118.71236
H         63.46022       56.86387      119.75284
O         62.62584       59.99844      117.11378
H         63.47144       60.26465      117.55554
H         62.83841       60.00478      116.14772

Ca 1.0



