%chk=apoCaM-CA-Ng.loop4.water8.frame847.chk
%nprocshared=20
%mem=10GB
%nosave
#b3lyp/svp scf=(tight,noincore,xqc) Test 
#IOP(5/87=12) Density=Current Pop=(MK,readradii) iop(6/33=2) iop(6/42=6)

apoCaM-CA-Ng.loop4.water8.frame847 

   -3  1 
C         71.01023       82.60159       62.77873
C         71.33889       82.89123       61.34139
O         72.49776       83.13650       61.04097
H         69.92654       82.40000       62.91609
H         71.57868       81.71291       63.12270
H         71.28476       83.47575       63.40641
N         70.35757       82.87774       60.39364
C         70.56123       83.16946       58.97797
C         71.52541       82.16891       58.35400
O         72.52661       82.56138       57.76875
C         70.99028       84.64862       58.79492
C         71.03619       85.11595       57.36089
O         70.74181       84.37299       56.43716
O         71.40019       86.38464       57.09589
H         69.39546       82.64868       60.68781
H         69.57803       83.04545       58.47057
H         71.99024       84.81192       59.24844
H         70.26050       85.29610       59.32716
N         71.28269       80.83343       58.46700
C         72.17662       79.82592       57.89198
C         72.04125       79.80351       56.36170
O         71.07101       80.36251       55.86800
C         71.89503       78.41389       58.50967
C         70.48313       77.87058       58.13706
C         72.11979       78.44991       60.03498
C         70.21123       76.45164       58.64235
H         70.46408       80.54418       59.02064
H         73.21113       80.11863       58.17364
H         72.64480       77.71029       58.10624
H         70.38995       77.83826       57.03069
H         69.68267       78.53150       58.52808
H         71.37843       79.10003       60.54396
H         72.05214       77.43438       60.47381
H         73.13880       78.82988       60.25993
H         70.97719       75.74793       58.25405
H         70.19645       76.41255       59.75033
H         69.21234       76.11980       58.28672
N         72.90692       79.16098       55.51538
C         74.18638       78.56105       55.87661
C         75.26157       79.16730       54.96722
O         75.94808       78.43932       54.26105
C         74.08387       77.02538       55.70070
C         75.29556       76.27198       56.18963
O         75.32121       75.05560       56.09637
O         76.34448       76.91294       56.74361
H         72.65511       79.13372       54.51358
H         74.43428       78.78075       56.93297
H         73.90685       76.78968       54.62806
H         73.20987       76.64341       56.26552
N         75.39034       80.52038       54.86136
C         76.23820       81.14379       53.85372
C         77.72318       81.13517       54.15021
O         78.46273       81.60963       53.29931
H         74.76223       81.12618       55.41108
H         75.95142       82.21351       53.75819
H         76.04060       80.66446       52.86975
N         78.23472       80.70828       55.34064
C         79.64562       80.86055       55.69222
C         80.27041       79.55682       56.14602
O         81.29395       79.17811       55.59117
C         79.83024       81.98808       56.73640
C         79.08663       81.81932       58.03605
O         77.86770       81.77112       58.05123
O         79.76093       81.79280       59.20119
H         77.59018       80.34900       56.05689
H         80.23485       81.20902       54.81302
H         79.49180       82.94250       56.27829
H         80.91774       82.09106       56.94900
N         79.73629       78.82122       57.16220
C         80.39487       77.63678       57.68483
C         81.60408       77.97584       58.53981
O         82.26461       77.04888       58.98366
H         78.83866       79.10067       57.58213
H         80.67134       76.96370       56.84342
H         79.69034       77.08339       58.34238
N         81.92037       79.26867       58.86877
C         83.02403       79.67217       59.73550
C         82.87790       79.18674       61.17715
O         83.78566       79.45241       61.95317
C         84.38974       79.27669       59.12083
C         84.62122       79.90692       57.73288
C         84.60513       81.41745       57.76973
N         85.50730       82.10551       58.50906
O         83.76809       82.02589       57.11990
H         81.34942       80.03553       58.50031
H         83.01939       80.78242       59.81133
H         84.47144       78.17400       59.03373
H         85.20784       79.60933       59.79529
H         83.84020       79.54076       57.03152
H         85.60753       79.57682       57.34280
H         86.22757       81.61478       59.05799
H         85.48887       83.13616       58.53053
N         81.76675       78.52621       61.63146
C         81.62233       78.06687       63.01435
C         80.45968       78.73343       63.73977
O         80.32243       78.48308       64.93048
C         81.45514       76.52077       63.06874
C         80.15297       76.03848       62.39939
C         82.66255       75.81041       62.44503
H         80.98721       78.34397       60.98875
H         82.53434       78.32668       63.59554
H         81.41119       76.21769       64.13902
H         80.13748       76.27416       61.31557
H         80.05069       74.93915       62.51535
H         79.26695       76.50699       62.87834
H         82.75260       76.05259       61.36651
H         83.59677       76.11798       62.96025
H         82.55275       74.71000       62.54935
N         79.56807       79.55509       63.10902
C         78.41720       80.14450       63.78507
C         78.48722       81.65878       63.71945
O         79.28617       82.20329       62.96729
C         77.13357       79.59647       63.12406
C         75.85334       80.11556       63.72993
N         74.98148       80.83389       62.98290
O         75.59785       79.88128       64.90199
H         79.67566       79.75848       62.10526
H         78.41725       79.86044       64.86095
H         77.13009       78.48793       63.21205
H         77.16320       79.84965       62.04217
H         75.17757       81.03993       61.99223
H         74.10712       81.19036       63.39517
N         77.71419       82.40567       64.55539
C         77.77752       83.86361       64.59271
C         77.15100       84.39925       65.87858
O         76.49290       83.64517       66.58521
C         77.04798       84.43306       63.35027
C         77.34115       85.88841       63.10429
C         76.43320       86.89009       63.48582
C         78.53976       86.25014       62.46867
C         76.73500       88.23637       63.25379
C         78.82914       87.59289       62.21825
C         77.93419       88.59109       62.61575
O         78.23754       89.88332       62.38021
H         77.13585       81.89695       65.23789
H         78.85455       84.14295       64.61110
H         75.95543       84.25951       63.47474
H         77.33388       83.88572       62.42584
H         75.50597       86.63091       63.98141
H         79.24314       85.48848       62.15356
H         76.03747       89.00180       63.56963
H         79.75191       87.85641       61.71640
H         77.65326       90.60662       62.64782
N         77.34053       85.69251       66.26943
C         76.75231       86.22846       67.48894
C         75.84990       87.40135       67.13889
O         76.37136       88.48345       66.90662
C         77.84574       86.63406       68.49511
C         78.68533       85.42166       68.92880
C         79.74497       85.81915       69.91358
O         80.61282       86.61663       69.59548
O         79.75289       85.28391       71.14931
H         77.93302       86.31441       65.69987
H         76.16374       85.45236       68.00010
H         77.36291       87.07086       69.39810
H         78.50610       87.40391       68.03823
H         79.17871       84.95879       68.04754
H         78.01785       84.66427       69.39631
N         74.49289       87.28460       66.99680
C         73.76701       86.01837       67.08580
C         73.75513       85.48394       68.50882
O         74.10185       86.20924       69.43212
C         72.30219       86.08236       66.55782
C         72.14637       86.55929       65.09576
C         72.05939       88.05632       64.92866
O         71.98727       88.53460       63.80846
O         71.96828       88.86482       66.00333
H         73.99504       88.13386       66.72544
H         74.30552       85.29951       66.42993
H         71.63216       86.66376       67.22781
H         71.93441       85.03341       66.57449
H         71.18372       86.17089       64.69764
H         72.96400       86.12546       64.48015
N         73.39972       84.18960       68.74363
C         73.40263       83.58489       70.05986
H         73.69171       84.30186       70.85663
H         72.38957       83.19410       70.28729
H         74.12510       82.74157       70.07143
H         73.14204       83.58620       67.94844
Ca        71.79114       91.10890       65.91943
O         73.75839       91.68892       63.67350
H         73.63345       90.72740       63.87255
H         74.71947       91.85174       63.84537
O         69.69035       91.59987       63.83248
H         70.22567       92.42713       63.73432
H         70.30685       90.87317       63.56335
O         70.19153       89.10720       68.27665
H         69.71614       88.64847       67.53879
H         70.08940       88.50139       69.05239
O         74.13340       92.94100       66.76437
H         74.07133       93.87181       67.09589
H         75.01693       92.62268       67.07770
O         71.06702       93.98398       66.44234
H         70.76749       94.82771       66.86419
H         71.23459       94.22237       65.49601
O         71.28309       92.12516       69.29244
H         71.08975       93.09117       69.39049
H         70.55236       91.67382       69.78504
O         73.82029       90.23827       68.64472
H         74.72129       90.16826       68.24147
H         73.86992       91.04690       69.21341
O         68.82754       91.73479       67.10023
H         68.59040       90.90444       66.61576
H         68.56776       91.55719       68.03902

Ca 1.0



