%chk=apoCaM-CA-Ng.loop3.water5.frame354.chk
%nprocshared=20
%mem=10GB
%nosave
#b3lyp/svp scf=(tight,noincore,xqc) Test 
#IOP(5/87=12) Density=Current Pop=(MK,readradii) iop(6/33=2) iop(6/42=6)

apoCaM-CA-Ng.loop3.water5.frame354 

   0  1 
C         86.94825       62.93316       52.78269
C         88.19243       62.14746       53.06910
O         88.67792       61.45389       52.18746
H         86.13979       62.60408       53.46980
H         87.14237       64.01446       52.94029
H         86.61119       62.77411       51.73625
N         88.75609       62.20445       54.30901
C         89.93000       61.44379       54.72243
C         89.60950       59.95542       54.66805
O         90.26528       59.19161       53.97284
C         91.17644       61.87791       53.91839
C         92.44039       61.29767       54.48970
O         93.16171       60.59347       53.80214
O         92.79614       61.57611       55.75923
H         88.31070       62.80701       55.01871
H         90.13028       61.69640       55.78849
H         91.26877       62.98451       53.97354
H         91.07449       61.59430       52.84975
N         88.55931       59.49737       55.40570
C         88.11318       58.10392       55.45842
C         87.62140       57.54619       54.12767
O         87.36442       56.35086       54.06509
C         86.94399       57.96437       56.47132
C         85.69889       58.79051       56.04214
C         84.51340       58.69544       57.00528
C         83.86899       57.30312       57.02320
N         82.67387       57.30196       57.86521
H         88.08009       60.19301       55.99442
H         88.97515       57.48896       55.80008
H         87.28623       58.30541       57.47213
H         86.67462       56.89024       56.55377
H         85.34918       58.48422       55.03280
H         85.96618       59.86393       55.98353
H         83.74639       59.41953       56.65143
H         84.82951       58.99691       58.02736
H         84.58763       56.54861       57.40680
H         83.57927       57.02002       55.98605
H         81.97550       57.98894       57.49718
H         82.24594       56.34845       57.85179
H         82.92743       57.55057       58.84877
N         87.36271       58.34977       53.06027
C         86.73140       57.85838       51.84373
C         87.60150       56.81643       51.16789
O         88.79422       57.03749       51.01824
C         86.38957       59.03739       50.91218
C         85.48940       58.60574       49.78950
O         84.21648       59.04420       49.73996
O         85.89641       57.85174       48.92595
H         87.54034       59.35826       53.13989
H         85.75362       57.40419       52.12538
H         87.30445       59.53100       50.51810
H         85.82480       59.78581       51.51102
N         87.04731       55.65440       50.71923
C         87.79516       54.58210       50.08453
C         88.62733       55.06733       48.92102
O         89.82590       54.82305       48.93002
H         86.02928       55.52251       50.81800
H         87.07976       53.80906       49.72813
H         88.46070       54.10355       50.83640
N         88.07284       55.78548       47.90090
C         88.85205       56.28674       46.77031
C         88.98008       57.80888       46.80275
O         88.79765       58.45937       45.78482
C         88.27744       55.73261       45.44234
C         86.86667       56.18051       45.10419
N         86.26906       55.72037       43.98170
O         86.26007       56.95752       45.82669
H         87.06946       55.99368       47.94437
H         89.89580       55.91350       46.84905
H         88.28343       54.62225       45.50325
H         88.94478       56.03228       44.60594
H         86.75888       55.06574       43.35507
H         85.31324       56.01903       43.73839
N         89.36099       58.43115       47.95514
C         89.67352       59.85052       48.09630
C         88.55607       60.85777       47.85368
O         88.81977       62.03422       48.05846
H         89.51645       57.84566       48.78630
H         90.51933       60.09935       47.42004
H         90.02205       60.01155       49.14041
N         87.32028       60.52040       47.39156
C         86.29034       61.51528       47.09216
C         85.27949       60.92750       46.12908
O         84.76209       59.84711       46.37338
C         85.57591       62.00330       48.36837
C         84.43229       62.93421       48.01524
C         84.67777       64.19810       47.45213
C         83.10267       62.51579       48.20357
C         83.61141       65.02559       47.08177
C         82.04005       63.33865       47.82153
C         82.29093       64.59662       47.25698
O         81.27460       65.39447       46.87119
H         87.11971       59.53689       47.17769
H         86.75651       62.39204       46.58937
H         86.28061       62.50504       49.06468
H         85.17480       61.11773       48.88630
H         85.69268       64.53898       47.29241
H         82.88586       61.54080       48.62207
H         83.81109       65.99501       46.64294
H         81.02276       62.99270       47.95622
H         80.34853       65.12523       46.95572
N         84.92075       61.62803       45.01898
C         84.02120       61.08869       44.01246
C         84.79008       60.00136       43.28786
O         84.31631       58.87683       43.22640
C         83.48019       62.20958       43.07083
C         82.73479       63.28200       43.92147
C         82.51920       61.60410       42.02603
C         82.20675       64.47905       43.13042
H         85.32357       62.56630       44.87412
H         83.12025       60.65810       44.50886
H         84.33336       62.68918       42.54226
H         83.42746       63.69918       44.67587
H         81.88501       62.81251       44.46532
H         81.64193       61.13890       42.52584
H         82.15916       62.37486       41.31585
H         83.02190       60.82793       41.41967
H         81.74279       65.20250       43.83546
H         83.03851       64.98754       42.59986
H         81.42561       64.17808       42.40464
N         86.04481       60.25136       42.80429
C         86.88326       59.20142       42.23054
C         86.36428       58.73702       40.88181
O         86.81121       57.70243       40.40794
C         88.34729       59.67616       42.07049
O         88.96216       60.04022       43.28507
H         86.43933       61.19740       42.92458
H         86.88118       58.34252       42.93837
H         88.38705       60.53799       41.36996
H         88.94176       58.84165       41.64040
H         88.27461       60.20600       43.97903
N         85.43157       59.46261       40.20060
C         84.84127       59.08143       38.92888
C         84.08938       57.77173       39.05764
O         84.22122       56.90691       38.20106
C         85.89026       59.07642       37.80537
H         85.09478       60.34850       40.59901
H         84.08677       59.85908       38.67459
H         86.38438       60.06933       37.74756
H         86.66856       58.30493       37.98082
H         85.40653       58.86851       36.82773
N         83.28669       57.55607       40.13896
C         82.48277       56.35520       40.30971
C         81.06192       56.71961       40.68848
O         80.81889       57.82098       41.16538
C         83.10201       55.45158       41.37000
H         83.26385       58.26573       40.88673
H         82.45619       55.77929       39.35832
H         84.12699       55.15785       41.05838
H         83.17072       55.98553       42.33443
H         82.49437       54.53023       41.49870
N         80.05274       55.84413       40.42579
C         78.63812       56.12170       40.64823
C         78.26038       57.45173       40.00683
O         77.66888       58.29849       40.66424
C         78.27231       56.07967       42.15177
C         78.68563       54.76298       42.82334
C         78.20191       54.71714       44.24546
O         78.59553       55.65557       45.12802
O         77.44851       53.82753       44.60807
H         80.29006       54.95088       39.96688
H         78.06070       55.31390       40.14509
H         77.16809       56.19541       42.23890
H         78.75809       56.92254       42.69056
H         79.79339       54.67209       42.81968
H         78.25693       53.90482       42.26099
N         78.64919       57.72410       38.72973
C         78.42557       59.00334       38.08602
H         77.85361       59.70831       38.72576
H         79.40777       59.47011       37.85724
H         77.86863       58.85115       37.13998
H         79.17646       57.01288       38.20129
Ca        83.49648       57.39479       47.25018
O         81.89528       54.69944       47.08734
H         81.12952       55.08066       46.58873
H         82.42947       54.22406       46.40233
O         84.68869       54.96200       48.40362
H         84.30459       54.45706       49.16304
H         85.12005       54.27534       47.83583
O         82.44761       56.40228       44.67891
H         83.13625       57.10789       44.60195
H         81.66836       56.75962       44.18465
O         81.79349       56.79069       49.58301
H         80.87084       57.12867       49.70258
H         81.71432       55.80818       49.67523
O         81.21734       59.24928       46.47750
H         80.81356       58.87616       47.30113
H         80.95108       58.61665       45.76414

Ca 1.0



