%chk=apoCaM-CA-Ng.loop4.water5.frame862.chk
%nprocshared=20
%mem=10GB
%nosave
#b3lyp/svp scf=(tight,noincore,xqc) Test 
#IOP(5/87=12) Density=Current Pop=(MK,readradii) iop(6/33=2) iop(6/42=6)

apoCaM-CA-Ng.loop4.water5.frame862 

   -3  1 
C         70.88522       69.21459       66.09635
C         71.20232       70.00109       64.85782
O         72.33358       70.44192       64.71643
H         69.83236       68.86147       66.09532
H         71.55136       68.32733       66.14985
H         71.04536       69.84726       66.99363
N         70.24902       70.19790       63.90099
C         70.47236       70.90813       62.64582
C         71.56396       70.20409       61.85176
O         72.55606       70.81452       61.47651
C         70.74263       72.40767       62.91550
C         70.81807       73.21382       61.64854
O         69.86193       73.26177       60.89096
O         71.93682       73.90267       61.35282
H         69.31104       69.79475       64.05013
H         69.53177       70.84223       62.05322
H         71.68554       72.53397       63.48789
H         69.91170       72.81772       63.52999
N         71.44591       68.86874       61.61156
C         72.47959       68.08153       60.93856
C         72.59173       68.45578       59.45646
O         71.69236       69.12228       58.96258
C         72.18314       66.55040       61.08460
C         70.84232       66.14081       60.40241
C         72.23236       66.12721       62.56485
C         70.63681       64.62908       60.30681
H         70.61324       68.39828       61.99215
H         73.44023       68.31091       61.44802
H         72.99829       66.00350       60.58834
H         70.82736       66.51781       59.35837
H         69.97309       66.58066       60.93410
H         73.21278       66.40893       63.00429
H         71.42743       66.60802       63.15781
H         72.13440       65.02825       62.66936
H         70.57778       64.15784       61.30739
H         69.68077       64.42363       59.77889
H         71.46377       64.16926       59.72517
N         73.61184       68.04339       58.63782
C         74.84461       67.37708       59.05133
C         76.01045       68.21149       58.51950
O         76.78949       67.72386       57.71035
C         74.87440       65.93306       58.48467
C         76.03514       65.11515       59.00105
O         76.16679       63.96001       58.63085
O         76.91897       65.62848       59.88115
H         73.53008       68.26782       57.63270
H         74.90999       67.31429       60.15539
H         74.90434       65.96752       57.37411
H         73.94876       65.39316       58.76255
N         76.13803       69.51882       58.88135
C         77.09036       70.42719       58.25526
C         78.04287       71.09189       59.21961
O         78.73815       71.99874       58.78358
H         75.47594       69.91403       59.56705
H         76.49400       71.22781       57.76770
H         77.69106       69.93304       57.46163
N         78.15457       70.70769       60.52316
C         79.02213       71.39100       61.47766
C         80.18744       70.51559       61.89489
O         81.31611       70.97942       61.79255
C         78.21679       71.95326       62.67279
C         77.50416       70.94357       63.53411
O         76.63335       70.22872       63.06666
O         77.77318       70.87790       64.85213
H         77.60984       69.89932       60.85089
H         79.47320       72.29604       61.00988
H         77.45798       72.66298       62.27767
H         78.91538       72.53547       63.31493
N         80.02125       69.23886       62.34782
C         81.15721       68.43889       62.78376
C         81.72841       68.93488       64.10050
O         82.79735       68.48431       64.48503
H         79.08192       68.81631       62.36784
H         81.93251       68.45398       61.98593
H         80.85026       67.38154       62.93409
N         81.02429       69.80499       64.88234
C         81.44392       70.29749       66.18525
C         81.65421       69.19274       67.20669
O         82.29503       69.44974       68.21816
C         82.60805       71.30435       66.08864
C         82.19628       72.52112       65.23492
C         83.17839       73.66440       65.28926
N         82.90446       74.81012       64.62353
O         84.20613       73.57841       65.94596
H         80.10018       70.12046       64.57078
H         80.59716       70.88671       66.60535
H         83.52867       70.83085       65.68525
H         82.82029       71.67283       67.11706
H         81.22857       72.91586       65.61548
H         82.05622       72.20614       64.17904
H         82.03714       74.90297       64.07381
H         83.55272       75.61022       64.66548
N         80.99841       67.99849       67.09662
C         80.95969       67.01401       68.17519
C         79.55468       66.89619       68.76002
O         79.42500       66.30794       69.82239
C         81.50924       65.63269       67.73021
C         80.65911       64.98344       66.62411
C         82.96913       65.74926       67.27328
H         80.44495       67.81293       66.24868
H         81.59452       67.36635       69.01834
H         81.48805       64.95471       68.61277
H         80.66369       65.59388       65.69750
H         81.06189       63.97787       66.37830
H         79.60977       64.85202       66.96298
H         83.59271       66.17410       68.08846
H         83.37139       64.74599       67.01715
H         83.05394       66.40290       66.37961
N         78.45895       67.42046       68.12597
C         77.11316       67.39725       68.68525
C         76.56375       68.82044       68.70023
O         77.13651       69.69673       68.06973
C         76.26449       66.42092       67.83680
C         74.86253       66.16305       68.34165
N         74.51029       64.93599       68.79465
O         74.02685       67.05290       68.31160
H         78.55282       67.84528       67.19645
H         77.14756       67.01976       69.73029
H         76.81284       65.45332       67.83332
H         76.20981       66.77275       66.78377
H         75.19055       64.16225       68.81942
H         73.55117       64.75641       69.12702
N         75.47774       69.13140       69.46151
C         74.90228       70.47961       69.50997
C         73.98611       70.60463       70.72174
O         73.51549       69.59962       71.22664
C         74.21920       70.80234       68.15013
C         73.73887       72.22727       67.96335
C         72.62071       72.71682       68.65552
C         74.39223       73.07550       67.04875
C         72.17278       74.02567       68.45504
C         73.94582       74.38546       66.84913
C         72.83660       74.86602       67.55090
O         72.41608       76.13043       67.34440
H         75.10249       68.38513       70.06096
H         75.74494       71.18486       69.68644
H         73.37743       70.10163       67.96424
H         74.96599       70.60278       67.35467
H         72.08615       72.08402       69.34046
H         75.25146       72.72709       66.48880
H         71.30722       74.38262       68.99891
H         74.46186       75.02654       66.14513
H         71.65043       76.50057       67.80649
N         73.81893       71.81095       71.33351
C         73.13937       71.96562       72.61368
C         71.98012       72.93455       72.45728
O         72.17240       74.11512       72.70884
C         74.20752       72.41004       73.65042
C         73.73785       72.44816       75.11829
C         72.81674       73.58974       75.43267
O         73.19924       74.74152       75.29509
O         71.57566       73.35115       75.89637
H         74.26137       72.64560       70.91984
H         72.75809       71.00079       72.99535
H         74.66974       73.38084       73.36509
H         75.01217       71.64166       73.61195
H         74.63169       72.56763       75.76850
H         73.25752       71.47932       75.37508
N         70.74278       72.56827       72.00378
C         70.31364       71.22398       71.60835
C         70.31197       70.25794       72.77629
O         69.74773       70.56623       73.81726
C         68.88911       71.25661       71.00844
C         68.82280       72.08303       69.71063
C         67.46150       72.05794       69.07133
O         67.27851       72.67065       68.03195
O         66.44130       71.36605       69.61632
H         70.05035       73.32947       71.92565
H         70.97877       70.83240       70.81256
H         68.16875       71.65950       71.75536
H         68.59238       70.21200       70.76148
H         69.55226       71.67154       68.98013
H         69.08569       73.14119       69.91454
N         70.89395       69.03353       72.64362
C         70.92033       68.05862       73.70972
H         71.48372       68.46146       74.57699
H         69.88484       67.80152       74.01660
H         71.42479       67.13249       73.35744
H         71.31329       68.76636       71.74219
Ca        64.44083       71.34377       68.56375
O         64.94926       74.11563       70.07013
H         65.13954       74.96158       69.59227
H         64.52804       74.39820       70.92031
O         61.89202       73.39739       68.94094
H         61.18659       73.52884       68.25863
H         62.16509       74.31449       69.19492
O         64.19665       74.09250       66.66155
H         63.42311       74.03424       66.04610
H         64.18534       75.02791       66.98618
O         63.03441       70.21505       71.10861
H         62.22070       70.58600       70.68325
H         63.32123       69.48696       70.50168
O         61.69407       70.53632       67.24655
H         61.07442       70.74084       67.99133
H         61.49908       71.22677       66.56405

Ca 1.0



