%chk=apoCaM-CA-Ng.loop3.water3.frame818.chk
%nprocshared=20
%mem=10GB
%nosave
#b3lyp/svp scf=(tight,noincore,xqc) Test 
#IOP(5/87=12) Density=Current Pop=(MK,readradii) iop(6/33=2) iop(6/42=6)

apoCaM-CA-Ng.loop3.water3.frame818 

   0  1 
C         74.58212       95.97560       88.29090
C         75.05414       97.21266       89.00129
O         75.57407       97.12056       90.10237
H         73.55684       96.11154       87.89146
H         75.26628       95.79410       87.43102
H         74.62166       95.08454       88.95036
N         74.97157       98.40912       88.36457
C         75.68564       99.60957       88.80250
C         75.14866      100.19182       90.12958
O         74.02883       99.86659       90.49818
C         75.62836      100.64048       87.63709
C         76.88214      101.44816       87.44429
O         77.44382      101.44528       86.36143
O         77.40600      102.17364       88.43282
H         74.48858       98.40951       87.45232
H         76.73373       99.28674       88.92204
H         74.71426      101.26497       87.72987
H         75.53092      100.10022       86.66820
N         75.87976      101.08571       90.87529
C         75.35983      101.80520       92.05371
C         75.25316      103.31684       91.79018
O         74.68838      104.01373       92.62272
C         76.20172      101.52581       93.33160
C         76.13882      100.04236       93.74380
C         76.86282       99.69453       95.06463
C         76.17946      100.27298       96.32087
N         76.82154       99.78406       97.54502
H         76.84038      101.29114       90.57792
H         74.31912      101.47767       92.26206
H         75.78954      102.13740       94.16192
H         77.25929      101.83372       93.17434
H         76.60097       99.44654       92.93056
H         75.07734       99.72825       93.84116
H         77.92575      100.01810       95.02055
H         76.84498       98.58712       95.16248
H         75.11054       99.96240       96.33739
H         76.22162      101.38230       96.30531
H         77.83964      100.02195       97.54664
H         76.36929      100.23098       98.37594
H         76.70384       98.74709       97.62451
N         75.72947      103.88135       90.64195
C         75.56324      105.27211       90.23560
C         74.75704      105.36577       88.93235
O         74.07006      106.35997       88.75380
C         76.94880      105.96292       90.13018
C         77.84202      105.35922       89.06333
O         77.64369      105.63899       87.89764
O         78.84925      104.51104       89.38248
H         76.24633      103.29195       90.00414
H         74.98514      105.81990       91.01477
H         77.43817      105.86691       91.12295
H         76.83002      107.05297       89.93114
N         74.79306      104.37569       87.98134
C         74.01414      104.39376       86.74956
C         74.86547      104.50170       85.49568
O         74.27032      104.63178       84.43274
H         75.38160      103.55573       88.12043
H         73.32921      105.26591       86.74420
H         73.38605      103.47732       86.70058
N         76.23051      104.47699       85.50939
C         77.06975      104.80352       84.34939
C         78.53146      104.42328       84.54202
O         78.91462      103.95792       85.60807
C         77.04327      106.33936       84.09794
C         75.73493      106.84690       83.57483
N         75.26865      106.40765       82.38301
O         75.09827      107.66925       84.21595
H         76.69047      104.22613       86.38970
H         76.72904      104.21962       83.46714
H         77.79404      106.63635       83.33849
H         77.31619      106.85816       85.04645
H         75.80475      105.72014       81.83252
H         74.37357      106.75245       82.00968
N         79.42126      104.60884       83.52285
C         80.84202      104.33832       83.64234
C         81.10637      102.89027       83.92952
O         80.28182      102.04618       83.60171
H         79.08738      104.98391       82.62108
H         81.25281      104.95907       84.46674
H         81.37336      104.61833       82.70725
N         82.24724      102.53012       84.57773
C         82.48820      101.15496       84.96094
C         81.38352      100.70652       85.98687
O         81.53351      101.44221       87.17939
C         83.92879      100.95570       85.53039
C         85.07044      101.37025       84.60650
C         86.07748      102.23928       85.07562
C         85.17625      100.86996       83.29387
C         87.15607      102.59781       84.25599
C         86.24972      101.24251       82.47148
C         87.24294      102.10361       82.94827
O         88.27373      102.44314       82.14500
H         82.94216      103.25333       84.81702
H         82.41121      100.52736       84.04393
H         84.06804       99.87528       85.74603
H         84.02091      101.50108       86.49436
H         86.04366      102.62830       86.08510
H         84.43172      100.19308       82.89916
H         87.92706      103.25617       84.63913
H         86.31513      100.85656       81.46139
H         88.98438      103.03464       82.43346
N         81.56320       99.27646       86.28458
C         80.44526       98.52013       86.88440
C         80.13131       98.98214       88.30294
O         79.46381       99.98870       88.49219
C         79.15419       98.42039       86.01285
C         78.11335       97.43345       86.62748
C         79.44370       98.05430       84.54862
C         78.52448       95.95391       86.60889
H         81.88857       98.75604       85.43679
H         80.85037       97.49038       86.95797
H         78.68833       99.42136       85.99537
H         77.15584       97.52233       86.07014
H         77.90325       97.71718       87.67822
H         80.06385       98.83669       84.06559
H         79.97881       97.08556       84.47377
H         78.49199       97.99185       83.97875
H         79.46479       95.77728       87.16729
H         77.73152       95.34289       87.08783
H         78.64051       95.58933       85.56752
N         80.59937       98.25346       89.35135
C         80.30832       98.54917       90.75542
C         81.23796       97.85249       91.74663
O         81.27711       98.29368       92.88836
C         78.86937       98.13978       91.10242
O         78.73646       96.74499       90.96876
H         81.23086       97.49806       89.09061
H         80.46035       99.63927       90.90357
H         78.15522       98.68138       90.45366
H         78.62540       98.41376       92.15048
H         77.98029       96.56360       90.35631
N         81.97536       96.74686       91.42613
C         82.86394       96.08158       92.36544
C         83.99753       97.00056       92.79517
O         84.20861       98.01551       92.14435
C         83.44644       94.83556       91.68679
H         81.88809       96.31013       90.50584
H         82.25439       95.79399       93.24904
H         83.99861       95.13101       90.76682
H         84.14490       94.30074       92.34349
H         82.62482       94.14599       91.39663
N         84.75621       96.77587       93.90868
C         84.54129       95.70898       94.88310
C         85.87712       95.22477       95.44056
O         86.63252       96.06997       95.90101
C         83.71249       96.27990       96.03816
H         85.43765       97.51107       94.15657
H         83.94405       94.88396       94.46241
H         84.23244       97.13900       96.51421
H         82.72785       96.63222       95.66193
H         83.53221       95.49602       96.80469
N         86.26115       93.91406       95.51905
C         85.48218       92.76196       95.07789
C         85.65368       92.52427       93.58698
O         84.81194       91.85590       93.00220
C         85.90318       91.52514       95.90720
C         85.11605       90.24553       95.59005
C         85.45035       89.16715       96.58222
O         85.16609       89.34369       97.88766
O         85.96519       88.12394       96.21345
H         87.16219       93.72565       95.98752
H         84.41125       92.93723       95.31773
H         85.73659       91.78678       96.97590
H         86.98880       91.32140       95.76611
H         85.36663       89.90114       94.56321
H         84.02449       90.43992       95.64784
N         86.72415       93.03031       92.90685
C         86.92766       92.85232       91.48384
H         87.88587       92.31828       91.31128
H         86.11018       92.27447       91.00453
H         86.98139       93.85000       91.00056
H         87.44839       93.56149       93.41064
Ca        79.98421      103.04397       87.95429
O         81.99919      102.21404       89.75447
H         82.18871      101.33055       90.15635
H         82.79617      102.41688       89.20258
O         81.84024      105.07487       87.27769
H         80.96694      105.54184       87.30573
H         82.04614      104.87902       88.22657
O         79.25467      102.04932       91.01166
H         79.16673      102.97646       91.34368
H         79.34305      101.50727       91.83407

Ca 1.0



