%chk=apoCaM-CA-Ng.loop4.water4.frame433.chk
%nprocshared=20
%mem=10GB
%nosave
#b3lyp/svp scf=(tight,noincore,xqc) Test 
#IOP(5/87=12) Density=Current Pop=(MK,readradii) iop(6/33=2) iop(6/42=6)

apoCaM-CA-Ng.loop4.water4.frame433 

   -3  1 
C         80.76384       81.91482       92.02563
C         79.84300       81.74925       93.19518
O         79.44665       80.62420       93.45679
H         81.67060       81.29345       92.19047
H         80.25660       81.57208       91.09977
H         81.07638       82.97129       91.89954
N         79.49321       82.81657       93.97537
C         78.66884       82.70287       95.17363
C         79.28536       81.72992       96.14915
O         78.69190       80.70821       96.42236
C         77.14811       82.52334       94.87771
C         76.67936       81.61899       93.75455
O         76.79608       80.27466       93.74225
O         76.10210       82.13787       92.81151
H         79.88573       83.74346       93.75268
H         78.69531       83.67205       95.72316
H         76.80017       83.53998       94.58185
H         76.60772       82.28442       95.82008
N         80.49521       82.03004       96.71501
C         81.23820       81.24915       97.71025
C         80.55177       81.26515       99.08214
O         81.12373       81.83914       99.99908
C         81.63019       79.83777       97.18784
C         82.49941       79.03959       98.20227
C         82.35333       79.94571       95.83012
C         83.82655       79.69196       98.60246
H         80.94480       82.90812       96.41096
H         82.19682       81.79571       97.85499
H         80.70757       79.24838       97.01710
H         82.74405       78.05004       97.76603
H         81.91357       78.86232       99.12745
H         83.27740       80.55465       95.90931
H         82.61959       78.93841       95.45099
H         81.69931       80.42116       95.07167
H         84.48067       79.85088       97.72159
H         83.66027       80.65591       99.12327
H         84.36151       79.01960       99.30582
N         79.32833       80.70578       99.30486
C         78.61149       80.82486      100.56566
C         79.22210       79.95348      101.66434
O         79.55455       80.53784      102.68623
C         77.09314       80.62509      100.36330
C         76.45613       81.70934       99.52193
O         75.25466       81.67478       99.31000
O         77.18284       82.72580       99.01427
H         78.84388       80.21986       98.55172
H         78.67981       81.88200      100.91828
H         76.59185       80.64556      101.35576
H         76.89097       79.66793       99.86231
N         79.47257       78.60505      101.59992
C         79.27512       77.70044      100.47631
C         77.84648       77.21864      100.30959
O         76.98044       77.67154      101.04302
H         79.95570       78.19193      102.41316
H         79.87343       76.78663      100.67594
H         79.68287       78.16426       99.56255
N         77.49007       76.26271       99.39352
C         78.42050       75.47762       98.57404
C         79.33787       76.33310       97.72567
O         78.93713       77.42316       97.34652
C         77.66629       74.45170       97.69487
C         76.64359       75.08540       96.78820
O         75.34442       74.75096       96.90636
O         76.97951       75.89608       95.94180
H         76.48636       76.02961       99.33170
H         79.05502       74.91116       99.28609
H         77.14441       73.73373       98.36282
H         78.38507       73.87335       97.07507
N         80.62658       75.97306       97.44994
C         81.25053       74.69020       97.76018
C         82.20881       74.78884       98.92096
O         82.28394       75.83183       99.55586
H         81.21399       76.66371       96.96840
H         81.78446       74.33743       96.85230
H         80.51098       73.90802       98.01282
N         82.97040       73.70667       99.26359
C         83.85006       73.68569      100.43042
C         85.32304       73.77951      100.06131
O         86.12581       73.91233      100.97604
C         83.49399       72.50409      101.36761
C         83.65046       71.08496      100.78429
C         85.07885       70.71816      100.49013
N         86.00066       70.69125      101.48064
O         85.40386       70.42317       99.35138
H         82.92402       72.86871       98.66530
H         83.67270       74.60396      101.03256
H         82.42691       72.62422      101.65611
H         84.08979       72.58480      102.30241
H         83.02561       70.97721       99.87309
H         83.26805       70.35452      101.52962
H         85.74299       70.91863      102.45096
H         86.97667       70.43569      101.28376
N         85.74838       73.83386       98.76199
C         87.10768       74.23097       98.39310
C         87.87052       73.19740       97.57435
O         89.02675       73.46944       97.28134
C         87.06542       75.59915       97.64512
C         86.50278       76.70352       98.55397
C         86.26074       75.54424       96.33188
H         85.06724       73.69845       98.00347
H         87.72429       74.38340       99.30701
H         88.10951       75.88858       97.39137
H         87.11527       76.78746       99.47717
H         86.53242       77.68347       98.03173
H         85.45084       76.49084       98.84125
H         86.32046       76.52270       95.81022
H         86.66978       74.76742       95.65273
H         85.18686       75.33223       96.51539
N         87.33585       72.00342       97.18152
C         88.10555       71.02052       96.41968
C         87.47507       70.68917       95.07483
O         88.07393       69.87035       94.38726
C         88.26638       69.70929       97.23248
C         89.04939       69.86645       98.50849
N         90.34082       70.26856       98.49038
O         88.52287       69.58412       99.57223
H         86.36860       71.76719       97.43847
H         89.12483       71.39887       96.19064
H         88.80808       68.95339       96.62243
H         87.26771       69.29440       97.47367
H         90.81601       70.48550       97.60305
H         90.87359       70.34585       99.36965
N         86.30660       71.23575       94.60181
C         85.72979       70.73877       93.35183
C         84.54435       71.53296       92.79279
O         83.53681       71.70572       93.46412
C         85.27719       69.25712       93.48995
C         84.18548       69.04547       94.51752
C         84.47191       69.10632       95.88871
C         82.86912       68.77499       94.11129
C         83.46930       68.90000       96.83714
C         81.85954       68.58289       95.05964
C         82.15648       68.64071       96.42540
O         81.17778       68.44328       97.33088
H         85.81965       71.97668       95.12769
H         86.53009       70.76367       92.57921
H         86.11901       68.57456       93.72320
H         84.91645       68.93756       92.49221
H         85.47218       69.29737       96.22528
H         82.62330       68.72887       93.06104
H         83.71435       68.93964       97.89024
H         80.84687       68.38706       94.73179
H         81.34838       68.46842       98.28351
N         84.56778       71.86479       91.46544
C         83.42397       72.24557       90.63587
C         82.83284       73.62071       90.85807
O         81.99634       73.98859       90.04125
C         82.33902       71.14074       90.61615
C         82.89824       69.82827       90.04230
C         81.82982       68.78183       89.90773
O         81.16704       68.33927       90.99239
O         81.56407       68.31800       88.81023
H         85.43764       71.68686       90.94044
H         83.80811       72.31541       89.59196
H         81.50922       71.46308       89.94910
H         81.91648       70.97954       91.63115
H         83.70419       69.43740       90.68974
H         83.33210       70.02914       89.03749
N         83.22620       74.48173       91.83972
C         82.76163       75.86795       91.80903
C         83.42188       76.62590       90.65853
O         83.00842       77.74416       90.38312
C         83.04006       76.60705       93.12994
C         82.34799       75.96029       94.33619
C         80.84918       75.94264       94.19379
O         80.24374       74.88296       94.21905
O         80.16768       77.09466       94.04394
H         83.90159       74.18426       92.55729
H         81.65892       75.86804       91.64997
H         82.67962       77.65774       93.04475
H         84.13551       76.63503       93.31480
H         82.61788       76.54574       95.23590
H         82.72638       74.92657       94.48109
N         84.46726       76.09555       89.95470
C         85.10252       76.79406       88.86122
H         85.93859       76.17995       88.46096
H         84.36908       76.96730       88.04641
H         85.51302       77.76257       89.21535
H         84.85346       75.17285       90.19820
Ca        77.70073       78.67692       95.04883
O         77.43623       78.33925       91.72568
H         77.51585       79.22581       91.29235
H         78.33096       77.92904       91.62016
O         74.53656       77.79432       94.19097
H         73.56201       77.83671       94.36052
H         74.71660       78.56622       93.59800
O         77.06441       75.62415       92.83458
H         76.69402       75.03274       93.53587
H         77.98846       75.29733       92.69660
O         76.05735       79.05432       97.41675
H         75.50060       79.69417       96.90577
H         75.48376       78.25569       97.52998

Ca 1.0



