%chk=apoCaM-CA-Ng.loop1.water3.frame1111.chk
%nprocshared=20
%mem=10GB
%nosave
#b3lyp/svp scf=(tight,noincore,xqc) Test 
#IOP(5/87=12) Density=Current Pop=(MK,readradii) iop(6/33=2) iop(6/42=6)

apoCaM-CA-Ng.loop1.water3.frame1111 

   0  1 
C         64.84528       81.22607       83.13996
C         64.38723       79.89367       82.62160
O         64.46603       79.68521       81.42298
H         65.91537       81.37779       82.88592
H         64.24245       82.03064       82.66824
H         64.72819       81.29939       84.24128
N         63.92658       78.93689       83.47888
C         63.43986       77.61312       83.08175
C         62.08360       77.68375       82.36865
O         61.06755       77.33169       82.95159
C         63.41674       76.65654       84.30571
C         62.53471       77.05176       85.46716
O         62.48664       76.25401       86.55059
O         61.87197       78.07715       85.45156
H         63.96844       79.15498       84.48530
H         64.17510       77.13931       82.39445
H         64.45581       76.57084       84.69331
H         63.10497       75.64756       83.95721
N         62.01397       78.06283       81.06337
C         60.77114       78.17120       80.30149
C         60.63208       77.02675       79.29461
O         59.63197       76.33017       79.40046
C         60.61256       79.56477       79.65164
C         60.67354       80.69358       80.69303
C         60.44953       82.06218       80.03882
C         60.54110       83.19077       81.07468
N         60.31461       84.49438       80.45074
H         62.89518       78.25557       80.59237
H         59.90338       78.07635       80.99454
H         59.62367       79.59852       79.14234
H         61.38587       79.75632       78.88537
H         61.67097       80.68601       81.18475
H         59.89250       80.52699       81.46734
H         59.44429       82.08096       79.56265
H         61.21962       82.22824       79.25339
H         61.54976       83.18016       81.54531
H         59.78037       83.02959       81.87073
H         60.39116       85.24059       81.17916
H         61.03224       84.66954       79.71037
H         59.35762       84.52981       80.03011
N         61.54584       76.67996       78.33233
C         62.84280       77.30522       78.09362
C         63.93420       76.49452       78.77597
O         63.65461       75.41903       79.29031
C         63.07400       77.54662       76.59265
C         63.01097       76.28455       75.78337
O         63.88313       75.28484       76.00767
O         62.15734       76.16042       74.92110
H         61.34098       75.82191       77.79516
H         62.87849       78.30176       78.54434
H         64.05887       78.03313       76.43201
H         62.28680       78.24546       76.23020
N         65.17953       77.02218       78.94144
C         66.16659       76.39545       79.80658
C         66.79878       75.15494       79.22909
O         66.59597       74.84059       78.06859
H         65.38125       77.96171       78.56707
H         65.68372       76.15822       80.77822
H         66.99150       77.11149       80.01026
N         67.59843       74.39608       80.02959
C         68.37708       73.24108       79.58088
C         69.81586       73.36956       80.10915
O         70.04697       74.23204       80.94611
C         67.70186       71.96251       80.12492
C         66.33117       71.77358       79.53677
O         66.19621       71.61917       78.33292
O         65.24771       71.75380       80.33603
H         67.64323       74.64752       81.03014
H         68.40000       73.20979       78.47246
H         67.62962       72.02776       81.23259
H         68.27399       71.05123       79.88945
N         70.85854       72.56812       79.72967
C         70.84639       71.58015       78.66714
C         70.78957       72.25093       77.32296
O         71.70330       72.99937       77.00252
H         71.75917       72.69719       80.21760
H         70.04593       70.83865       78.80755
H         71.80219       71.01228       78.68953
N         69.74632       72.02798       76.48002
C         69.65812       72.61004       75.14967
C         68.56510       73.70455       75.15357
O         67.38105       73.38995       75.85091
C         69.46276       71.49041       74.09828
C         70.64402       70.50730       74.10863
O         69.36063       72.05124       72.81456
H         68.97068       71.42631       76.79715
H         70.60015       73.14100       74.88647
H         68.53035       70.94441       74.35164
H         69.01973       71.34078       72.21101
H         70.48161       69.71273       73.34953
H         71.59010       71.03725       73.86341
H         70.74972       70.01917       75.09959
N         68.39635       74.39991       73.86216
C         67.76179       75.74142       73.85444
C         66.39070       75.59514       73.22503
O         65.54720       74.92945       73.79575
C         67.70588       76.48565       75.23601
C         69.09302       76.69109       75.91887
C         66.98525       77.84193       75.10341
C         70.10716       77.50196       75.10910
H         69.35566       74.52844       73.46176
H         68.34997       76.39331       73.16999
H         67.08636       75.88514       75.92563
H         69.56849       75.72326       76.16029
H         68.93386       77.20226       76.89396
H         65.94772       77.70467       74.73507
H         66.91750       78.33783       76.09564
H         67.51318       78.51374       74.39652
H         70.35157       76.99031       74.15602
H         69.73389       78.52397       74.90094
H         71.04602       77.59562       75.69541
N         66.08540       76.20809       72.04569
C         64.75886       76.09764       71.44003
C         64.59108       74.83344       70.59105
O         63.47110       74.56194       70.17980
C         64.41000       77.36522       70.61562
C         65.28023       77.54492       69.36376
O         64.53591       78.50910       71.42069
H         66.79354       76.81774       71.61322
H         64.01411       76.07115       72.26314
H         63.35681       77.28347       70.25474
H         63.74742       78.52754       72.02401
H         64.95345       78.45232       68.81335
H         66.35177       77.67133       69.61885
H         65.17582       76.67447       68.68248
N         65.65707       74.07076       70.20527
C         65.53217       72.97283       69.24214
C         64.86536       71.74361       69.83817
O         65.42553       71.16162       70.75083
C         66.91317       72.55941       68.65674
C         67.58166       73.69271       67.86309
O         67.77848       72.05421       69.64790
H         66.59592       74.36238       70.50783
H         64.93051       73.33680       68.37825
H         66.73728       71.73836       67.92598
H         68.16589       72.81722       70.15069
H         68.53209       73.32696       67.42025
H         66.91512       74.02496       67.03916
H         67.80798       74.56462       68.51141
N         63.69374       71.25350       69.33074
C         63.08588       69.98716       69.75154
C         62.82582       69.99071       71.24182
O         63.38121       69.17101       71.96326
C         63.96975       68.78784       69.33389
C         64.19756       68.74766       67.81927
C         65.01786       67.51582       67.42419
C         65.25649       67.48385       65.91067
N         66.02134       66.29840       65.52764
H         63.21845       71.78073       68.58308
H         62.10842       69.86731       69.23373
H         63.45671       67.84934       69.64248
H         64.95421       68.82808       69.84892
H         64.73960       69.66550       67.50249
H         63.21433       68.71316       67.30120
H         64.46895       66.59745       67.72952
H         65.99797       67.53748       67.94962
H         65.81512       68.39692       65.60520
H         64.27852       67.47554       65.37947
H         65.49216       65.43286       65.78260
H         66.17342       66.30969       64.49329
H         66.95064       66.29863       66.00759
N         62.01931       70.94228       71.77697
C         61.88210       71.13333       73.21112
C         62.61038       72.45316       73.56916
O         63.94490       72.23087       73.18754
C         60.41734       70.95804       73.67199
C         59.94020       69.51365       73.43759
C         58.51487       69.32747       73.87239
O         58.21393       68.43937       74.83894
O         57.62021       69.96434       73.33872
H         61.55985       71.61781       71.14723
H         62.44479       70.35897       73.77899
H         59.72814       71.62415       73.13182
H         60.35003       71.18053       74.75961
H         60.59028       68.81600       74.00977
H         60.01232       69.25597       72.35901
N         62.16456       73.64371       72.82052
C         60.76217       74.02715       72.96679
H         60.40835       73.90724       74.01267
H         60.63864       75.09049       72.66835
H         60.14396       73.46751       72.23912
H         62.73898       74.43295       73.18828
Ca        65.60402       72.51001       74.72918
O         63.09999       72.84974       77.75657
H         64.03057       73.18843       77.77646
H         63.12683       72.02473       78.30318
O         64.02184       70.12553       76.10782
H         63.08219       70.41216       76.23181
H         64.25338       69.66363       76.95294
O         66.40639       70.27372       73.15334
H         66.69077       71.18333       72.88103
H         66.99161       69.67456       72.62696

Ca 1.0



