%chk=apoCaM-CA-Ng.loop4.water3.frame390.chk
%nprocshared=20
%mem=10GB
%nosave
#b3lyp/svp scf=(tight,noincore,xqc) Test 
#IOP(5/87=12) Density=Current Pop=(MK,readradii) iop(6/33=2) iop(6/42=6)

apoCaM-CA-Ng.loop4.water3.frame390 

   -3  1 
C         32.70795       83.73135       38.67772
C         33.74294       84.75763       39.03124
O         34.15593       85.47935       38.14503
H         31.81598       84.24729       38.25993
H         33.11149       83.03701       37.91173
H         32.39131       83.14760       39.56607
N         34.18171       84.90254       40.31424
C         35.10797       85.93479       40.77675
C         34.51458       87.31624       40.56487
O         34.76695       87.93826       39.54962
C         36.59085       85.72327       40.34969
C         36.91658       85.78582       38.87960
O         36.88616       86.96444       38.22919
O         37.31454       84.78743       38.29993
H         33.78762       84.27648       41.03251
H         35.17264       85.81806       41.88206
H         36.88634       84.72045       40.72870
H         37.23003       86.47148       40.86895
N         33.61671       87.79378       41.47869
C         32.90592       89.07347       41.44535
C         33.83421       90.22648       41.82414
O         33.60459       90.81751       42.87104
C         32.07265       89.28421       40.14366
C         31.17252       90.55254       40.20540
C         31.21446       88.03970       39.83287
C         30.11694       90.56075       41.32365
H         33.38437       87.17791       42.27319
H         32.16622       89.00882       42.27272
H         32.76443       89.42428       39.28676
H         30.63754       90.65060       39.23499
H         31.81044       91.45374       40.32397
H         30.61758       88.19931       38.90950
H         31.85562       87.15112       39.66039
H         30.52699       87.80072       40.67070
H         29.50987       91.48722       41.25153
H         29.42271       89.69993       41.23735
H         30.58721       90.55276       42.32762
N         34.92854       90.57245       41.08477
C         35.89624       91.56220       41.54409
C         35.27368       92.96210       41.62757
O         35.23644       93.48659       42.73152
C         37.20841       91.46353       40.72509
C         38.26047       92.41168       41.22758
O         38.69160       92.32994       42.50118
O         38.74209       93.24776       40.48014
H         35.12879       90.07924       40.21037
H         36.20273       91.26761       42.57498
H         37.04778       91.61220       39.64570
H         37.60727       90.43015       40.82407
N         34.74275       93.64995       40.57105
C         34.74211       93.16004       39.20457
C         34.11431       94.10866       38.19854
O         33.57119       95.12801       38.59959
H         34.33710       94.57634       40.77302
H         34.19912       92.19553       39.16893
H         35.78141       93.05778       38.91283
N         34.11675       93.86602       36.84929
C         34.72899       92.73532       36.15028
C         34.15840       91.41789       36.66391
O         34.88854       90.64122       37.26345
C         36.27904       92.81225       36.16295
C         36.93190       91.91223       35.14215
O         36.26836       91.20910       34.39642
O         38.27310       91.91090       35.02769
H         33.62807       94.55100       36.25066
H         34.48340       92.84703       35.07376
H         36.70853       92.55830       37.14410
H         36.57928       93.84976       35.90482
N         32.85023       91.08025       36.49098
C         31.94379       91.80537       35.62087
C         31.17745       92.87759       36.32603
O         31.29002       93.03658       37.53408
H         32.52611       90.18251       36.87663
H         31.20376       91.09914       35.19681
H         32.47624       92.21952       34.74511
N         30.31733       93.63054       35.59193
C         29.42989       94.62710       36.16243
C         28.00053       94.09367       36.21475
O         27.16665       94.73028       36.84122
C         29.64147       96.00082       35.48156
C         29.51101       96.04811       33.94634
C         28.12600       95.75656       33.46099
N         27.09185       96.53745       33.84076
O         27.93733       94.82570       32.69540
H         30.24050       93.42667       34.58342
H         29.68567       94.78073       37.23429
H         30.68450       96.31388       35.70737
H         28.96923       96.75160       35.94803
H         30.23941       95.35410       33.47549
H         29.77533       97.07059       33.60125
H         27.23313       97.33847       34.47109
H         26.14689       96.35023       33.49488
N         27.68601       92.86594       35.69535
C         26.46336       92.13220       36.00828
C         25.60038       91.85629       34.78756
O         24.56098       91.23104       34.96228
C         26.83879       90.79661       36.73487
C         27.50359       91.07372       38.09229
C         27.75312       89.87548       35.89999
H         28.37355       92.36753       35.12093
H         25.82232       92.72026       36.70047
H         25.89949       90.23781       36.94178
H         28.45919       91.62617       37.96655
H         26.82356       91.67247       38.73396
H         27.71859       90.11815       38.61837
H         27.91863       88.92001       36.44102
H         27.29753       89.64156       34.91569
H         28.75255       90.32689       35.73384
N         25.92658       92.29152       33.53726
C         25.10032       92.02760       32.36645
C         25.84843       91.22794       31.31357
O         25.25827       90.97903       30.27339
C         24.59483       93.34674       31.73630
C         23.80019       94.21373       32.68315
N         22.71995       93.73815       33.34309
O         24.12272       95.37907       32.83594
H         26.78877       92.83241       33.39897
H         24.20692       91.42566       32.63832
H         23.92708       93.09571       30.88360
H         25.45544       93.92860       31.33472
H         22.41352       92.76248       33.23335
H         22.19047       94.35484       33.97783
N         27.12804       90.76990       31.49660
C         27.82782       90.05529       30.43470
C         29.11163       89.36939       30.88105
O         29.80938       89.83597       31.76775
C         28.10024       90.97936       29.21042
C         28.67133       92.35152       29.55148
C         27.92470       93.50366       29.23194
C         29.92685       92.51735       30.16670
C         28.41261       94.77982       29.52691
C         30.40852       93.79683       30.47160
C         29.65574       94.93069       30.15299
O         30.13450       96.15575       30.45229
H         27.60671       90.91293       32.39504
H         27.16924       89.22193       30.10252
H         27.13362       91.13414       28.68852
H         28.75638       90.46104       28.47788
H         26.95893       93.41937       28.74975
H         30.54460       91.67052       30.41219
H         27.82126       95.65026       29.27056
H         31.37141       93.90813       30.95482
H         29.64158       96.96477       30.25231
N         29.49770       88.25252       30.19199
C         30.79069       87.58213       30.26878
C         31.10743       86.90389       31.60118
O         32.15663       86.28277       31.68732
C         31.88630       88.56404       29.80035
C         33.15659       87.85651       29.29845
C         34.16108       88.85078       28.79757
O         35.38700       88.90426       29.35126
O         33.87925       89.60501       27.87963
H         28.85773       87.89287       29.46694
H         30.75003       86.76532       29.51127
H         32.11709       89.29401       30.60575
H         31.48217       89.12570       28.92763
H         32.88846       87.17362       28.46107
H         33.62776       87.25776       30.10003
N         30.23852       86.89306       32.65300
C         30.50017       86.13842       33.87725
C         29.62849       84.89260       33.92536
O         29.73598       84.14773       34.89002
C         30.23761       87.01420       35.11776
C         31.03263       88.32201       35.12593
C         32.51541       88.11858       35.22580
O         33.26239       88.53906       34.35724
O         33.02498       87.56894       36.33946
H         29.32200       87.35403       32.56732
H         31.55623       85.78964       33.91409
H         30.46434       86.44177       36.04598
H         29.15840       87.27629       35.13589
H         30.71417       88.90768       36.01456
H         30.78512       88.91158       34.21911
N         28.75925       84.58582       32.91462
C         27.91849       83.40953       32.90827
H         26.85646       83.72566       32.84395
H         28.16414       82.79444       32.01726
H         28.05021       82.78770       33.81699
H         28.67272       85.19633       32.09080
Ca        35.23040       87.48986       36.79343
O         35.54617       85.01312       35.31101
H         35.36768       84.60518       34.42738
H         36.48648       84.77730       35.51230
O         37.68620       89.61443       37.43442
H         38.28236       89.62316       36.64462
H         38.23254       89.20603       38.15170
O         37.05645       87.98701       34.35313
H         36.70003       87.42231       33.62278
H         36.38355       88.70459       34.45407

Ca 1.0



