%chk=apoCaM-CA-Ng.loop1.water3.frame723.chk
%nprocshared=20
%mem=10GB
%nosave
#b3lyp/svp scf=(tight,noincore,xqc) Test 
#IOP(5/87=12) Density=Current Pop=(MK,readradii) iop(6/33=2) iop(6/42=6)

apoCaM-CA-Ng.loop1.water3.frame723 

   0  1 
C         80.21962      110.24498       31.99591
C         81.33753      110.85622       31.20600
O         81.25215      112.03490       30.89180
H         79.27550      110.33081       31.41707
H         80.40787      109.17098       32.20345
H         80.10637      110.78261       32.95974
N         82.41469      110.10693       30.83259
C         83.50166      110.62933       30.00678
C         83.56150      109.88225       28.64570
O         82.33444      109.25921       28.38366
C         84.83948      110.57550       30.77652
C         85.29503      109.20384       31.21803
O         86.40685      109.09641       31.97000
O         84.68179      108.19236       30.91546
H         82.44044      109.11631       31.11393
H         83.31046      111.70328       29.79340
H         84.72193      111.19472       31.69241
H         85.64366      111.02789       30.15745
N         83.90990      110.80945       27.54573
C         83.89338      110.16933       26.20526
C         85.13591      109.32697       25.94620
O         86.08621      109.40253       26.71196
C         83.67896      111.23491       25.10027
C         84.70789      112.38217       25.12155
C         84.39897      113.39752       24.01191
C         85.44760      114.51546       23.95342
N         85.15300      115.44933       22.86582
H         83.17225      111.55376       27.55252
H         83.02168      109.48462       26.12992
H         82.67084      111.68356       25.24537
H         83.67995      110.74016       24.10418
H         85.72830      111.97883       24.98399
H         84.67952      112.90445       26.10188
H         83.39353      113.84131       24.18348
H         84.38620      112.87559       23.03661
H         86.45283      114.07125       23.78598
H         85.46493      115.06563       24.91983
H         85.14744      114.94515       21.94881
H         84.22433      115.90411       23.02283
H         85.89204      116.18842       22.83775
N         85.15680      108.44469       24.89655
C         86.27364      107.54306       24.60952
C         86.70742      107.65431       23.14704
O         86.62631      106.66736       22.42921
C         85.86761      106.08577       24.94727
C         85.49106      105.95293       26.39066
O         86.28761      106.25148       27.26567
O         84.24054      105.58814       26.72238
H         84.31237      108.35800       24.30985
H         87.15452      107.78321       25.24406
H         86.71793      105.39926       24.74027
H         85.00383      105.78094       24.31580
N         87.22835      108.79371       22.61438
C         87.39681      110.01513       23.36940
C         88.14621      111.05622       22.58102
O         87.63093      112.14714       22.38725
H         87.54116      108.76883       21.63288
H         87.98956      109.80831       24.28476
H         86.39855      110.39627       23.64877
N         89.40737      110.79328       22.13703
C         90.23131      111.78353       21.45381
C         89.61435      112.16685       20.11942
O         89.59125      111.33746       19.21992
C         91.65512      111.21228       21.24947
C         92.64048      112.17864       20.64794
O         93.78631      111.81160       20.44337
O         92.28740      113.44173       20.33984
H         89.80812      109.86487       22.34554
H         90.30315      112.67341       22.11791
H         91.59550      110.31140       20.59783
H         92.05565      110.89271       22.23613
N         89.08337      113.41116       19.92150
C         88.52222      113.83399       18.64347
C         87.35337      112.98796       18.16419
O         86.95384      113.15704       17.02064
H         89.09632      114.09352       20.69465
H         89.33197      113.76656       17.88598
H         88.19615      114.89552       18.70105
N         86.76689      112.05293       18.96282
C         85.75301      111.10333       18.51970
C         86.26649      109.68998       18.76846
O         87.37808      109.53310       19.25850
C         84.42005      111.35456       19.27950
C         84.51303      111.08470       20.78952
O         84.01121      112.68028       19.06068
H         87.06777      111.97731       19.94093
H         85.54519      111.22120       17.43332
H         83.65222      110.66555       18.85959
H         83.03161      112.71275       19.22236
H         83.52342      111.25710       21.26293
H         84.80368      110.03207       20.99090
H         85.25133      111.75676       21.26377
N         85.47559      108.60881       18.54045
C         85.83959      107.28266       19.02517
C         87.01336      106.71507       18.24858
O         88.01676      106.40656       18.87267
C         84.60458      106.33217       19.07197
C         83.52660      106.94115       20.02255
C         85.02830      104.93291       19.56843
C         82.24505      106.11852       20.14294
H         84.54466      108.75728       18.12525
H         86.15627      107.38541       20.08450
H         84.18223      106.22664       18.04860
H         83.21851      107.94162       19.65734
H         83.95361      107.07584       21.04142
H         84.17364      104.22874       19.56691
H         85.79345      104.48849       18.89924
H         85.44607      104.99178       20.59621
H         81.52709      106.66035       20.79522
H         81.78282      105.97618       19.14418
H         82.43808      105.13419       20.61378
N         86.93585      106.49649       16.90545
C         88.00399      105.86552       16.12592
C         87.49263      105.48673       14.74825
O         86.95225      106.33117       14.04860
C         89.30925      106.71188       15.97762
C         89.14630      108.04970       15.23307
O         89.95371      106.89537       17.21405
H         86.04569      106.72570       16.43707
H         88.29700      104.92336       16.64069
H         90.01243      106.10754       15.36033
H         89.65978      107.75888       17.60464
H         88.78810      107.89805       14.19601
H         88.44441      108.71700       15.77419
H         90.13746      108.54635       15.15999
N         87.66559      104.21553       14.29236
C         87.29134      103.77403       12.95464
C         87.54673      102.27904       12.84382
O         86.60553      101.53831       12.59493
C         88.05769      104.58149       11.85345
C         87.70933      104.12025       10.43374
O         89.44620      104.49610       12.04895
H         88.10682      103.53133       14.92648
H         86.20045      103.94781       12.81115
H         87.75071      105.64725       11.92484
H         89.85666      105.28693       11.61038
H         88.24634      104.75294        9.69410
H         88.01363      103.06558       10.27100
H         86.61867      104.22021       10.25310
N         88.80655      101.77494       12.99092
C         89.13923      100.37653       12.77859
C         90.05054       99.87743       13.88593
O         91.06787      100.51064       14.13809
C         89.82515      100.27523       11.40727
C         89.94324       98.82705       10.91924
C         90.46861       98.79675        9.48004
C         90.41940       97.38000        8.89925
N         90.87527       97.37524        7.50984
H         89.58705      102.42318       13.16503
H         88.21486       99.76000       12.72302
H         90.81468      100.78454       11.41656
H         89.17439      100.80672       10.67719
H         88.92613       98.37567       10.92981
H         90.60366       98.23422       11.58883
H         91.50870       99.18931        9.45390
H         89.82644       99.44778        8.84604
H         89.37064       97.00710        8.93558
H         91.05663       96.69942        9.50531
H         90.80475       96.40433        7.12915
H         90.27355       98.00700        6.93185
H         91.87020       97.69265        7.45764
N         89.78961       98.71514       14.55028
C         90.70552       98.18509       15.55600
C         90.72756       99.05607       16.81003
O         91.79835       99.55706       17.12226
C         90.42698       96.69356       15.86224
C         91.50162       96.09130       16.78341
C         91.27918       94.61957       16.97951
O         90.14050       94.17572       17.54508
O         92.13307       93.81843       16.63365
H         88.96791       98.15799       14.27060
H         91.72484       98.18670       15.10319
H         90.45233       96.14112       14.89652
H         89.42946       96.53480       16.31379
H         91.48055       96.58999       17.77585
H         92.50577       96.25136       16.33091
N         89.64516       99.29926       17.61000
C         88.29074       98.83195       17.39308
H         87.60867       99.70597       17.34754
H         88.15822       98.27115       16.45589
H         87.98460       98.18571       18.24279
H         89.79083       99.87720       18.45268
Ca        83.01770      107.21623       27.66554
O         87.36204      107.98183       29.28278
H         87.94575      108.41637       28.61246
H         87.92185      107.91738       30.09637
O         86.24458      105.19101       30.81182
H         86.93423      105.70003       31.30740
H         86.37592      104.25211       31.09796
O         84.18154      103.52758       29.04706
H         84.97859      103.02682       28.73952
H         83.90784      103.07095       29.88190

Ca 1.0



