%chk=apoCaM-CA-Ng.loop4.water2.frame450.chk
%nprocshared=20
%mem=10GB
%nosave
#b3lyp/svp scf=(tight,noincore,xqc) Test 
#IOP(5/87=12) Density=Current Pop=(MK,readradii) iop(6/33=2) iop(6/42=6)

apoCaM-CA-Ng.loop4.water2.frame450 

   -3  1 
C         54.99430       73.58869       85.83220
C         54.36545       72.25830       86.11005
O         55.04139       71.24929       85.98512
H         56.05477       73.46358       85.52179
H         54.43896       74.11021       85.02704
H         54.97136       74.20288       86.75742
N         53.07432       72.18518       86.54412
C         52.43298       70.94014       86.94725
C         53.22241       70.27889       88.05728
O         53.68548       69.16621       87.89391
C         51.96106       70.05450       85.75156
C         52.80360       69.90053       84.50121
O         53.95938       69.21527       84.42860
O         52.37754       70.38170       83.46262
H         52.55004       73.06296       86.67872
H         51.46886       71.18802       87.44869
H         51.04008       70.56601       85.38780
H         51.62528       69.06135       86.12047
N         53.35960       70.95627       89.24225
C         53.97984       70.50262       90.49173
C         53.17149       69.37353       91.12714
O         52.52111       69.61876       92.13398
C         55.49518       70.19807       90.34278
C         56.15833       69.77097       91.68300
C         56.23781       71.40042       89.73074
C         56.12044       70.82087       92.80083
H         52.95105       71.90377       89.27936
H         53.89520       71.36542       91.19045
H         55.61171       69.34975       89.64070
H         57.22145       69.51382       91.48564
H         55.66479       68.85354       92.06299
H         57.31929       71.17597       89.63264
H         55.84592       71.62865       88.71839
H         56.12049       72.30988       90.35544
H         56.64972       71.74798       92.50277
H         55.07847       71.06828       93.08778
H         56.62945       70.41508       93.70037
N         53.13253       68.12690       90.58329
C         52.25701       67.06602       91.05992
C         52.62433       66.61140       92.48430
O         51.77305       66.79131       93.34361
C         52.15685       65.93972       90.00487
C         51.63820       66.45728       88.68601
O         50.42042       67.02615       88.60977
O         52.32174       66.36369       87.67763
H         53.70383       67.93326       89.76110
H         51.22390       67.48274       91.10786
H         51.47062       65.14480       90.36571
H         53.14105       65.50797       89.79553
N         53.82701       66.07967       92.88456
C         54.96288       65.77822       92.03063
C         54.75197       64.48829       91.26014
O         53.76544       63.81219       91.52174
H         53.95787       65.90908       93.89426
H         55.86901       65.62372       92.65412
H         55.14368       66.65876       91.39850
N         55.58628       64.05317       90.26765
C         56.82423       64.70116       89.82390
C         56.61268       66.14636       89.39864
O         55.50547       66.48183       89.00729
C         57.43491       63.89195       88.64661
C         56.51138       63.79409       87.45224
O         56.17695       64.79456       86.83739
O         56.06075       62.59099       87.04857
H         55.30996       63.17610       89.79777
H         57.52521       64.68229       90.68155
H         57.65318       62.86468       89.00859
H         58.39002       64.33073       88.30285
N         57.61049       67.07855       89.39669
C         58.99413       66.85613       89.77703
C         59.18802       66.72771       91.26151
O         58.23158       66.81605       92.01949
H         57.37825       68.02738       89.07966
H         59.58326       67.75138       89.48108
H         59.42192       65.99500       89.23386
N         60.45385       66.58304       91.74329
C         60.77800       66.59667       93.16237
C         61.52150       67.87741       93.54183
O         61.70855       68.10160       94.72873
C         61.44705       65.26793       93.58561
C         62.74994       64.87545       92.86477
C         63.91341       65.75764       93.20900
N         64.34727       65.85881       94.48615
O         64.49354       66.36054       92.32257
H         61.22769       66.52352       91.06358
H         59.83755       66.65118       93.75424
H         60.71220       64.46278       93.36456
H         61.60607       65.26458       94.68500
H         62.58635       64.85165       91.76636
H         63.02245       63.84378       93.17457
H         63.88602       65.33882       95.24555
H         65.15717       66.44716       94.71872
N         61.86951       68.81238       92.60086
C         62.29274       70.17534       92.92398
C         63.69845       70.50266       92.44751
O         64.12166       71.63225       92.66599
C         61.27295       71.19211       92.31662
C         59.86552       70.96877       92.88650
C         61.21807       71.15835       90.77335
H         61.75153       68.59781       91.60474
H         62.29987       70.32518       94.02588
H         61.58994       72.21656       92.61451
H         59.88213       71.05294       93.99344
H         59.16836       71.73710       92.49024
H         59.47738       69.96568       92.60834
H         62.22004       71.35299       90.33653
H         60.84431       70.18701       90.38917
H         60.52968       71.94665       90.40133
N         64.48901       69.59533       91.80923
C         65.82701       69.90904       91.32799
C         65.96703       69.67610       89.82865
O         67.04637       69.94201       89.32585
C         66.87507       69.06413       92.08611
C         66.85885       69.31269       93.57529
N         67.10833       70.54216       94.08331
O         66.63618       68.38480       94.33544
H         64.14110       68.63982       91.66360
H         66.06814       70.98085       91.49996
H         67.89455       69.30948       91.71677
H         66.68886       67.98606       91.88796
H         67.31327       71.34069       93.46673
H         67.10164       70.69463       95.10316
N         64.94157       69.20426       89.04172
C         65.13121       68.94809       87.60864
C         63.82559       68.65959       86.86276
O         62.78682       68.45764       87.47106
C         66.14860       67.78787       87.40861
C         65.69906       66.50523       88.07950
C         66.25504       66.11065       89.30893
C         64.71977       65.69351       87.48760
C         65.82228       64.93864       89.93846
C         64.29450       64.51766       88.11057
C         64.83751       64.13902       89.34121
O         64.40647       63.00958       89.93820
H         64.01855       69.03848       89.45811
H         65.52957       69.88316       87.15720
H         67.12114       68.08926       87.84416
H         66.36612       67.59845       86.33579
H         67.01054       66.71813       89.78975
H         64.29340       65.96555       86.53876
H         66.24929       64.65584       90.89234
H         63.54017       63.90248       87.63587
H         64.74657       62.71871       90.79628
N         63.84564       68.65730       85.49243
C         62.72052       68.37874       84.59482
C         61.59116       69.41138       84.63407
O         60.72074       69.31667       83.78090
C         62.22430       66.92192       84.79371
C         61.17789       66.45536       83.76477
C         60.85597       64.99980       83.94165
O         59.71433       64.64883       84.19473
O         61.82169       64.07162       83.80187
H         64.74815       68.85120       85.03417
H         63.13059       68.43853       83.56055
H         61.80974       66.78825       85.81581
H         63.11009       66.26306       84.67595
H         61.57009       66.60672       82.73594
H         60.23662       67.02879       83.88241
N         61.52497       70.43429       85.53683
C         60.40871       71.37647       85.56594
C         60.85269       72.80805       85.31226
O         59.98387       73.66670       85.23555
C         59.69927       71.28446       86.93261
C         59.17074       69.87830       87.28133
C         58.01373       69.42287       86.43490
O         57.58859       70.10816       85.51903
O         57.35968       68.29416       86.75924
H         62.25660       70.55200       86.24717
H         59.67817       71.14405       84.76407
H         58.84844       72.00211       86.97423
H         60.42768       71.57828       87.71857
H         58.79779       69.92597       88.32434
H         59.98621       69.12609       87.25008
N         62.16622       73.15262       85.16973
C         62.60749       74.51021       84.92269
H         63.19517       74.53696       83.98187
H         61.76228       75.22365       84.82611
H         63.25269       74.84352       85.76198
H         62.90529       72.44126       85.24523
Ca        55.33006       68.15951       85.83896
O         56.81097       66.31016       83.94964
H         57.06971       66.46734       83.00749
H         57.45020       66.85318       84.47499
O         53.66221       65.39336       84.73668
H         52.84776       64.90230       84.46124
H         54.39566       64.95425       84.23722

Ca 1.0



