%chk=apoCaM-CA-Ng.loop3.water5.frame495.chk
%nprocshared=20
%mem=10GB
%nosave
#b3lyp/svp scf=(tight,noincore,xqc) Test 
#IOP(5/87=12) Density=Current Pop=(MK,readradii) iop(6/33=2) iop(6/42=6)

apoCaM-CA-Ng.loop3.water5.frame495 

   0  1 
C         40.18089       59.24449       96.81978
C         39.06134       59.75956       97.67491
O         39.30756       60.17702       98.79784
H         41.15208       59.31073       97.35530
H         39.98947       58.18363       96.55429
H         40.24502       59.84677       95.88916
N         37.78577       59.75510       97.19587
C         36.64446       60.24696       97.96127
C         36.83905       61.72354       98.25331
O         36.96095       62.49797       97.31344
C         35.34723       59.99340       97.17079
C         34.12606       60.38734       97.94240
O         33.35946       61.22127       97.48875
O         33.86020       59.80486       99.12779
H         37.62807       59.37805       96.24773
H         36.58681       59.66841       98.91058
H         35.26825       58.90754       96.94750
H         35.38229       60.54421       96.20442
N         36.95929       62.16521       99.53966
C         37.37475       63.52047       99.86865
C         38.75111       63.41927      100.47085
O         38.92411       62.74237      101.47604
C         36.43399       64.27040      100.83561
C         35.03158       64.54612      100.27405
C         34.08905       63.34525      100.40113
C         32.71148       63.67352       99.81232
N         31.76414       62.58668      100.05636
H         36.86626       61.48767      100.31227
H         37.43745       64.14485       98.94987
H         36.90698       65.26782      100.98860
H         36.36788       63.78190      101.83217
H         35.11167       64.90383       99.22360
H         34.58065       65.36550      100.87715
H         33.98147       63.10298      101.48158
H         34.49455       62.45968       99.87970
H         32.81792       63.84183       98.71700
H         32.31161       64.60426      100.27234
H         32.12657       61.68696       99.67338
H         31.60187       62.48216      101.08413
H         30.85656       62.81139       99.58929
N         39.78777       64.06725       99.88365
C         41.15919       63.97172      100.34098
C         41.54356       65.31851      100.90806
O         41.22507       66.32780      100.29796
C         42.03155       63.52319       99.15156
C         43.40595       63.09999       99.58306
O         44.24168       63.97031      100.16835
O         43.76814       61.94582       99.41536
H         39.60185       64.66791       99.06464
H         41.26065       63.19753      101.13488
H         42.09012       64.32173       98.38039
H         41.54672       62.63524       98.68601
N         42.19764       65.41370      102.09738
C         42.52037       66.67793      102.73875
C         43.22803       67.63724      101.80897
O         42.83006       68.79318      101.76413
H         42.49402       64.54886      102.57511
H         43.15209       66.47437      103.62945
H         41.58357       67.16033      103.09887
N         44.25187       67.22464      101.00619
C         44.92803       68.11618      100.06529
C         44.72487       67.67251       98.61545
O         45.67836       67.61762       97.85157
C         46.40773       68.27207      100.48232
C         47.23222       67.00163      100.45744
N         48.50582       67.02611      100.90985
O         46.76680       65.95372      100.03611
H         44.54338       66.24111      101.05700
H         44.47669       69.13009      100.12397
H         46.41391       68.65838      101.52513
H         46.90147       69.02692       99.83398
H         48.91774       67.89857      101.27036
H         49.08161       66.17231      100.90220
N         43.46940       67.38500       98.16560
C         43.10747       67.07961       96.78570
C         43.73380       65.84914       96.14401
O         43.41254       65.61127       94.98789
H         42.69426       67.45666       98.83368
H         43.36490       67.95821       96.15592
H         42.00351       66.94713       96.73948
N         44.65474       65.05426       96.76189
C         45.36608       63.99675       96.04644
C         46.66722       63.67851       96.75955
O         46.65124       63.24397       97.90186
C         44.51042       62.72447       95.87462
C         45.31039       61.62364       95.20453
C         45.76972       61.76464       93.88250
C         45.63366       60.45638       95.91816
C         46.54250       60.75864       93.29088
C         46.41085       59.45650       95.32733
C         46.87054       59.60561       94.01141
O         47.63515       58.65540       93.43560
H         44.94928       65.27569       97.72074
H         45.63127       64.38185       95.03659
H         43.59539       62.93631       95.28163
H         44.18639       62.39142       96.88095
H         45.53789       62.65474       93.31186
H         45.30092       60.32673       96.94018
H         46.89845       60.88057       92.27539
H         46.66382       58.57125       95.89728
H         47.90514       57.85514       93.90901
N         47.84374       63.89708       96.11366
C         49.15260       63.71218       96.71483
C         49.55599       65.01446       97.38034
O         49.99721       64.96806       98.51982
C         50.16932       63.22140       95.63821
C         49.72864       61.88752       94.97366
C         51.59471       63.07260       96.20100
C         49.64378       60.68391       95.92341
H         47.81500       64.30532       95.16643
H         49.11477       62.93631       97.51084
H         50.21523       63.98835       94.83244
H         50.45280       61.63629       94.16797
H         48.74007       62.02516       94.49111
H         51.97478       64.03516       96.56927
H         51.63356       62.35627       97.04563
H         52.28842       62.73584       95.40094
H         49.36086       59.78005       95.34795
H         50.62186       60.46938       96.39833
H         48.87733       60.84227       96.70884
N         49.36833       66.22591       96.77168
C         49.71774       67.47725       97.44005
C         51.22341       67.66619       97.53926
O         51.65503       68.53685       98.27982
C         49.05550       68.68383       96.76682
O         49.50322       68.81637       95.44685
H         48.91828       66.25923       95.84483
H         49.30168       67.43253       98.46781
H         49.29374       69.60715       97.34081
H         47.95337       68.52514       96.78419
H         48.88457       69.45999       95.01348
N         52.08101       66.86083       96.84479
C         53.52800       66.86602       96.99451
C         53.88626       66.58460       98.44155
O         54.63899       67.33043       99.05495
C         54.14535       68.15355       96.44003
H         51.69846       66.16117       96.19846
H         53.93138       66.02680       96.38232
H         53.80630       69.04422       97.00607
H         55.25327       68.09220       96.49490
H         53.85700       68.27353       95.37364
N         53.33446       65.50226       99.05074
C         53.57786       65.10510      100.42497
C         54.15404       63.71302      100.39992
O         53.54742       62.83770       99.79462
C         52.26450       65.13716      101.20581
H         52.68827       64.91384       98.50484
H         54.28185       65.80174      100.93055
H         52.43671       64.83688      102.26076
H         51.84417       66.16556      101.19943
H         51.52672       64.44831      100.74960
N         55.34753       63.43948      101.00020
C         56.02376       62.15163      100.89443
C         56.48841       61.89405       99.46026
O         56.89916       60.77982       99.16594
C         55.17590       60.97398      101.45630
C         54.81964       61.11099      102.94826
C         53.81366       62.19064      103.22467
O         52.69686       62.12826      102.73489
O         54.12876       63.21780      104.03635
H         55.82340       64.18657      101.52883
H         56.95136       62.18353      101.50725
H         55.79488       60.05440      101.36837
H         54.25594       60.79306      100.86329
H         55.74880       61.29244      103.53066
H         54.37815       60.15292      103.29792
N         56.52857       62.89479       98.52946
C         57.00278       62.67757       97.18047
H         58.04411       62.29117       97.19956
H         56.34251       61.95403       96.65893
H         56.99491       63.63706       96.61897
H         56.25065       63.85516       98.77557
Ca        46.22988       63.20201      100.89090
O         46.14875       64.95323      103.29592
H         45.69572       65.81311      103.48251
H         47.11494       65.16686      103.33322
O         44.34510       61.43780      102.48007
H         45.12093       60.97061      102.88016
H         44.15352       62.18234      103.10409
O         49.03682       63.50864      100.81076
H         49.53401       63.54435      101.66544
H         49.50216       62.81915      100.27477
O         47.74516       61.94546      103.26727
H         48.35479       62.64441      103.61356
H         48.32858       61.16140      103.10920
O         47.06024       60.66368       99.52938
H         48.01328       60.45044       99.69189
H         46.64343       59.79529       99.30150

Ca 1.0



