%chk=apoCaM-CA-Ng.loop3.water5.frame1089.chk
%nprocshared=20
%mem=10GB
%nosave
#b3lyp/svp scf=(tight,noincore,xqc) Test 
#IOP(5/87=12) Density=Current Pop=(MK,readradii) iop(6/33=2) iop(6/42=6)

apoCaM-CA-Ng.loop3.water5.frame1089 

   0  1 
C         44.28542       83.91049       17.43098
C         44.37706       84.15591       15.95558
O         44.56948       85.29485       15.55322
H         43.28096       83.50638       17.67526
H         45.06126       83.17897       17.73887
H         44.43856       84.85436       17.99742
N         44.26005       83.11431       15.08408
C         44.30863       83.27669       13.63604
C         43.05721       82.68573       13.01150
O         43.15191       81.88700       12.08986
C         45.61242       82.67451       13.06328
C         45.75221       81.18766       13.28160
O         45.82675       80.43571       12.32306
O         45.82417       80.67817       14.52590
H         44.12363       82.16843       15.47013
H         44.32045       84.35838       13.37659
H         46.48358       83.18374       13.52838
H         45.64075       82.88786       11.97252
N         41.83134       83.04748       13.48454
C         40.56397       82.54645       12.96385
C         40.39056       83.00258       11.52577
O         40.15697       82.18111       10.64856
C         40.45448       81.00259       13.10818
C         40.70763       80.51585       14.54505
C         40.54041       78.99056       14.70128
C         41.51074       78.11982       13.87364
N         42.91169       78.33208       14.24265
H         41.78471       83.71808       14.26721
H         39.74672       83.00897       13.56118
H         41.18629       80.51567       12.43453
H         39.43806       80.68520       12.78695
H         39.97535       81.01119       15.21796
H         41.72446       80.81174       14.87825
H         39.50097       78.71989       14.41562
H         40.67277       78.73358       15.77460
H         41.37646       78.29847       12.78583
H         41.25320       77.05340       14.06038
H         43.21335       79.30369       14.00661
H         43.04744       78.15093       15.26372
H         43.50892       77.66391       13.70316
N         40.55532       84.32078       11.21261
C         40.50780       84.82516        9.84452
C         41.90064       85.18738        9.33527
O         42.00909       85.58581        8.18390
C         39.49206       85.97945        9.71162
C         39.91110       87.26143       10.38048
O         40.03821       88.27375        9.71174
O         40.11463       87.31882       11.70957
H         40.79832       84.97470       11.97079
H         40.14380       84.02231        9.16669
H         38.51218       85.65346       10.12269
H         39.34580       86.18676        8.62789
N         43.02037       85.00797       10.10461
C         44.38193       85.19595        9.61951
C         44.71304       84.23019        8.49079
O         43.83589       83.48950        8.06804
H         42.92990       84.68639       11.07666
H         45.07472       85.00526       10.46490
H         44.52227       86.24442        9.28043
N         45.94703       84.15342        7.91403
C         47.13615       84.88548        8.34549
C         47.55967       84.45664        9.74572
O         47.48249       83.27005       10.03464
C         48.32479       84.65697        7.37512
C         48.81108       83.22154        7.29709
N         50.05057       82.88957        7.72730
O         48.08769       82.35215        6.83594
H         46.03125       83.51413        7.11118
H         46.91337       85.97185        8.30854
H         49.16291       85.30185        7.71657
H         48.04772       85.00029        6.35517
H         50.68198       83.59800        8.12774
H         50.37677       81.91324        7.67040
N         48.07698       85.31840       10.66788
C         48.31556       86.73409       10.40932
C         48.96511       87.44638       11.57992
O         49.17438       86.84466       12.62398
H         48.34863       84.91411       11.57699
H         47.35593       87.24359       10.18124
H         48.99923       86.82791        9.53936
N         49.33182       88.75626       11.45573
C         49.96088       89.50858       12.53976
C         49.12988       90.74221       12.87115
O         48.24128       91.09087       12.10546
C         51.39779       89.87836       12.10446
C         52.27947       90.39379       13.21648
C         52.83419       91.68342       13.16015
C         52.59078       89.56164       14.30603
C         53.68293       92.13138       14.17900
C         53.43971       90.01022       15.32062
C         53.99050       91.29743       15.25983
O         54.81938       91.73878       16.22755
H         49.17794       89.22998       10.55192
H         50.00778       88.87119       13.44704
H         51.34050       90.60565       11.26393
H         51.89858       88.96524       11.71303
H         52.61804       92.33985       12.32679
H         52.18762       88.55851       14.36390
H         54.10931       93.12515       14.12448
H         53.67441       89.35297       16.14862
H         55.06566       91.18773       16.98453
N         49.33945       91.43542       14.02794
C         48.57155       92.63727       14.37124
C         48.85696       93.78679       13.41184
O         49.74884       93.68838       12.57917
C         48.76838       93.08709       15.86149
C         47.93763       92.18221       16.80247
C         50.25002       93.18925       16.28651
C         47.88704       92.69132       18.24513
H         50.03385       91.05928       14.68370
H         47.49106       92.40766       14.23478
H         48.32723       94.10017       15.96883
H         48.30853       91.13599       16.77931
H         46.88518       92.18542       16.43894
H         50.81902       93.82302       15.57618
H         50.33778       93.65108       17.29072
H         50.73573       92.19417       16.35222
H         47.18860       92.06096       18.83485
H         48.88434       92.64247       18.72503
H         47.51460       93.73894       18.27164
N         48.08407       94.91251       13.47305
C         48.22904       96.06276       12.58852
C         46.93482       96.32102       11.82534
O         45.94932       95.63055       12.05104
C         48.62402       97.29164       13.42618
O         47.62826       97.57923       14.37103
H         47.33593       94.95840       14.18235
H         49.03361       95.88099       11.84321
H         48.77488       98.17371       12.76680
H         49.58286       97.06760       13.94624
H         47.98481       98.31516       14.93338
N         46.87610       97.32552       10.90128
C         45.68889       97.69061       10.13346
C         44.56656       98.12219       11.05962
O         43.47623       97.58085       10.95639
C         45.26994       96.54388        9.19370
H         47.72527       97.88515       10.73259
H         45.94751       98.56400        9.49563
H         44.40879       96.85883        8.56608
H         46.11179       96.27283        8.52375
H         44.96559       95.63966        9.76219
N         44.79331       99.10358       11.99115
C         43.88367       99.57549       13.04516
C         42.62707       98.73407       13.21663
O         41.51426       99.23470       13.11969
C         43.57232      101.05926       12.82316
H         45.72333       99.55019       11.98124
H         44.42730       99.48844       14.01214
H         42.95631      101.45316       13.66030
H         44.51615      101.64409       12.78594
H         43.02420      101.20098       11.86777
N         42.76692       97.40589       13.47114
C         41.65558       96.47801       13.58495
C         41.12234       96.53090       14.99646
O         39.93505       96.76117       15.17694
C         42.14546       95.07390       13.17811
C         41.04615       94.00454       13.19541
C         41.63627       92.67080       12.74536
O         40.70571       91.63709       12.88575
O         41.99797       92.72665       11.39420
H         43.72595       97.02435       13.51354
H         40.85854       96.74411       12.85238
H         42.97735       94.75250       13.84222
H         42.54366       95.15067       12.14038
H         40.20062       94.29188       12.53093
H         40.66739       93.89157       14.23264
N         41.97003       96.36458       16.05118
C         41.55395       96.44077       17.43552
H         40.45942       96.59065       17.54128
H         41.83534       95.50169       17.95494
H         42.07389       97.29150       17.92496
H         42.97284       96.20615       15.86976
Ca        40.87088       90.86803       10.75851
O         39.43417       91.62219        8.38598
H         38.48743       91.88726        8.50131
H         39.46116       91.15106        7.51599
O         42.67295       89.00355        8.60790
H         42.34998       88.21979        8.09782
H         43.48684       89.29233        8.12476
O         43.19253       88.97463       12.24095
H         43.31766       89.03041       13.22177
H         43.24468       88.00669       12.03807
O         38.08572       90.26081       11.80896
H         38.36872       90.15583       12.75205
H         37.65835       91.15336       11.77579
O         44.01967       91.50012        9.71034
H         43.47146       91.95906        9.02473
H         44.30960       92.22207       10.32252

Ca 1.0



