%chk=apoCaM-CA-Ng.loop1.water2.frame1150.chk
%nprocshared=20
%mem=10GB
%nosave
#b3lyp/svp scf=(tight,noincore,xqc) Test 
#IOP(5/87=12) Density=Current Pop=(MK,readradii) iop(6/33=2) iop(6/42=6)

apoCaM-CA-Ng.loop1.water2.frame1150 

   0  1 
C         74.34603       34.71396      106.88994
C         75.71296       34.58291      106.29425
O         76.22411       35.55300      105.75830
H         73.65014       33.99053      106.41585
H         74.42181       34.49395      107.97522
H         73.94549       35.74219      106.75803
N         76.36473       33.38898      106.37000
C         77.73142       33.16194      105.90960
C         77.76001       32.66539      104.46726
O         78.29591       31.60392      104.17993
C         78.51571       32.26835      106.90495
C         77.88554       30.92515      107.17748
O         76.86466       30.82222      108.05182
O         78.37323       29.91020      106.70834
H         75.86270       32.61481      106.82173
H         78.28245       34.12563      105.89392
H         78.63058       32.79014      107.87959
H         79.54108       32.11963      106.50113
N         77.24615       33.46198      103.49156
C         77.34722       33.20248      102.06320
C         78.65059       33.77493      101.52723
O         79.40321       32.99378      100.96029
C         76.10263       33.71491      101.31934
C         74.83762       32.98264      101.78458
C         73.62093       33.55957      101.06350
C         72.34866       32.76582      101.36403
N         71.19854       33.39769      100.71935
H         76.84147       34.35485      103.78078
H         77.37589       32.10317      101.87883
H         76.22981       33.53420      100.22905
H         75.95809       34.80063      101.45962
H         74.69430       33.09865      102.88301
H         74.94499       31.89983      101.55449
H         73.79398       33.53184       99.96574
H         73.49085       34.61837      101.37980
H         72.17173       32.71090      102.46130
H         72.47215       31.72980      100.97523
H         71.02248       34.33235      101.15556
H         71.37668       33.51902       99.69547
H         70.35438       32.79598      100.84893
N         79.08209       35.06211      101.70369
C         78.38846       36.15874      102.38892
C         78.93535       36.34260      103.79327
O         79.83659       35.62564      104.20164
C         78.43096       37.47273      101.57633
C         79.79196       37.78188      101.06475
O         80.55489       38.71856      101.65530
O         80.19774       37.18334      100.08226
H         80.05339       35.23713      101.40674
H         77.32647       35.94979      102.53137
H         78.06586       38.31946      102.19394
H         77.75758       37.41883      100.69570
N         78.33405       37.23015      104.63380
C         78.67000       37.34330      106.03946
C         79.97405       38.04146      106.31721
O         80.63174       38.53016      105.41104
H         77.52248       37.76918      104.29698
H         78.66368       36.33619      106.50368
H         77.88533       37.95033      106.54161
N         80.37133       38.14276      107.61591
C         81.48909       38.95913      108.09127
C         81.12403       39.58164      109.44528
O         80.22682       39.07016      110.10216
C         82.74980       38.09203      108.26645
C         83.23414       37.49550      106.98006
O         83.59304       38.21659      106.06235
O         83.31467       36.15735      106.85252
H         79.77952       37.66377      108.31130
H         81.67011       39.77224      107.36055
H         82.52616       37.27424      108.98559
H         83.58002       38.69558      108.67989
N         81.75039       40.66665      109.98466
C         82.80683       41.45885      109.38087
C         82.38020       42.16531      108.10904
O         81.26489       42.66294      108.03408
H         81.43843       40.96888      110.92248
H         83.72122       40.85521      109.22166
H         83.08286       42.25280      110.11045
N         83.29136       42.33675      107.10665
C         83.04937       43.12052      105.89560
C         82.28307       42.34297      104.77539
O         82.06483       40.96092      105.01929
C         84.37700       43.61321      105.28284
C         85.11080       44.60896      106.19051
O         84.12480       44.24455      104.05228
H         84.24915       42.00024      107.28205
H         82.49357       44.05103      106.18072
H         85.00244       42.70937      105.12229
H         84.97843       44.23966      103.54789
H         86.10907       44.82245      105.75196
H         84.54448       45.56559      106.25028
H         85.25232       44.21074      107.21552
N         81.08183       43.12424      104.42871
C         80.17944       42.64196      103.37830
C         80.88579       42.22741      102.09049
O         81.79294       41.42315      102.10354
C         79.16427       41.59293      103.90848
C         78.51762       42.03569      105.25399
C         78.07937       41.33264      102.84199
C         77.73547       43.35579      105.21379
H         81.40779       44.07533      104.12925
H         79.53580       43.51144      103.11861
H         79.68444       40.63441      104.10973
H         79.31686       42.13416      106.01901
H         77.82854       41.23751      105.60584
H         78.53056       40.87909      101.93490
H         77.30016       40.64055      103.22256
H         77.58815       42.28343      102.53712
H         76.86416       43.28080      104.53147
H         77.35817       43.58626      106.23260
H         78.37808       44.20456      104.90240
N         80.41880       42.68844      100.90745
C         80.84641       42.19200       99.59700
C         82.29103       42.53030       99.20958
O         82.74807       42.04146       98.18536
C         79.81509       42.72300       98.56353
C         79.98354       42.20204       97.14133
O         79.82622       44.13197       98.52218
H         79.61453       43.32659      100.96104
H         80.76190       41.08055       99.62257
H         78.82169       42.34612       98.91028
H         79.19213       44.47206       99.20544
H         80.18676       41.11045       97.14165
H         79.03671       42.39318       96.58828
H         80.80338       42.74575       96.62326
N         83.05262       43.38613       99.94218
C         84.35880       43.87962       99.49850
C         85.47830       42.87105       99.79188
O         85.69593       42.55481      100.95076
C         84.61183       45.25925      100.17265
C         85.97602       45.84393       99.81775
O         83.64056       46.19107       99.75349
H         82.62408       43.81588      100.77316
H         84.31685       44.08716       98.40450
H         84.57655       45.15266      101.28068
H         82.75439       45.90488      100.09293
H         86.05287       45.99948       98.72089
H         86.09828       46.82323      100.32848
H         86.79106       45.17585      100.15974
N         86.24148       42.34735       98.77852
C         87.37347       41.42193       98.95013
C         86.97929       40.18018       99.74406
O         87.54033       39.92958      100.80341
C         88.60751       42.09325       99.59871
C         89.17455       43.28288       98.81153
C         90.50307       43.73071       99.44541
C         91.12774       44.93382       98.72733
N         92.47284       45.19813       99.24430
H         86.01005       42.61652       97.80923
H         87.70531       41.08847       97.93961
H         89.40524       41.31439       99.63978
H         88.37906       42.41094      100.63855
H         88.44065       44.11413       98.80721
H         89.37309       42.97358       97.76148
H         91.21542       42.87793       99.39600
H         90.34451       43.99773      100.51408
H         90.48043       45.82638       98.87888
H         91.20119       44.73464       97.63549
H         93.11037       44.41265       98.97488
H         92.84051       46.08271       98.82584
H         92.46016       45.29220      100.28594
N         86.01120       39.35181       99.28302
C         85.51909       38.20412      100.03443
C         84.03457       38.49034      100.39584
O         83.55264       37.86063      101.56996
C         85.85073       36.87205       99.28168
C         87.28514       36.37645       99.57391
C         87.61963       35.14379       98.77421
O         87.93762       35.24033       97.59903
O         87.58257       33.92790       99.35368
H         85.57535       39.57816       98.37831
H         86.01075       38.12927      101.02824
H         85.75021       36.98977       98.18504
H         85.16795       36.05763       99.61009
H         87.33235       36.11532      100.65298
H         88.06135       37.14926       99.38087
N         83.01527       38.64179       99.33007
C         83.17064       38.00520       98.01142
H         84.14901       38.18999       97.54852
H         82.92503       36.91907       98.02839
H         82.45540       38.48856       97.30867
H         82.12155       38.28959       99.70774
Ca        82.82428       39.43945      103.26389
O         82.58957       36.54369      103.72766
H         83.22914       36.15248      104.36942
H         82.09582       35.76514      103.37485
O         85.31033       40.60750      103.68560
H         85.63766       39.67572      103.63616
H         85.18522       40.86615      102.73988

Ca 1.0



