%chk=apoCaM-CA-Ng.loop2.water3.frame1386.chk
%nprocshared=20
%mem=10GB
%nosave
#b3lyp/svp scf=(tight,noincore,xqc) Test 
#IOP(5/87=12) Density=Current Pop=(MK,readradii) iop(6/33=2) iop(6/42=6)

apoCaM-CA-Ng.loop2.water3.frame1386 

   -2  1 
C         16.93620       55.46533       50.93903
C         18.38873       55.12968       51.17303
O         19.21989       55.87792       50.67971
H         16.21634       54.79079       51.43318
H         16.73928       56.48618       51.32925
H         16.72767       55.45483       49.84920
N         18.82336       54.06320       51.90971
C         17.95768       53.12228       52.61986
C         18.59976       51.73680       52.79517
O         18.00405       50.91202       53.47516
C         17.57914       53.75492       53.98354
C         18.75236       53.76436       54.91807
O         19.38719       54.89541       55.26779
O         19.17901       52.70337       55.34521
H         19.83847       54.02377       52.08328
H         17.02991       52.94643       52.04181
H         16.76000       53.18329       54.47095
H         17.21214       54.78952       53.81232
N         19.80315       51.40862       52.23323
C         20.51307       50.16562       52.49229
C         21.92675       50.50976       52.94812
O         22.87653       50.16802       52.25460
C         20.51263       49.32124       51.20946
H         20.26596       52.05308       51.57949
H         20.01596       49.56208       53.28283
H         19.46801       49.08616       50.91389
H         21.00161       49.86806       50.37424
H         21.05038       48.36357       51.37884
N         22.14484       51.20562       54.10739
C         23.48265       51.64604       54.50754
C         23.58379       52.03929       56.00949
O         22.44552       52.35186       56.77174
C         24.03069       52.72030       53.52740
C         23.25098       54.00302       53.49965
O         22.66008       54.34037       52.48592
O         23.27560       54.83176       54.55680
H         21.33853       51.42648       54.70771
H         24.16922       50.77411       54.43030
H         24.03667       52.29654       52.50215
H         25.08763       52.96084       53.76854
N         24.83262       52.68671       56.43392
C         24.91476       52.86230       57.89360
C         24.48916       54.25139       58.30250
O         24.12963       55.05413       57.45207
H         25.60410       52.04143       56.14439
H         25.97732       52.75873       58.20749
H         24.33485       52.08407       58.43911
N         24.57065       54.61854       59.61259
C         24.33909       55.97981       60.08274
C         25.65421       56.50204       60.62607
O         25.74589       56.89327       61.78248
C         23.21327       56.00978       61.14004
C         21.85615       55.61692       60.60600
N         20.78788       55.61173       61.43581
O         21.70721       55.31566       59.43091
H         24.88154       53.91676       60.30301
H         24.04843       56.65514       59.24774
H         23.12157       57.04492       61.53597
H         23.48122       55.33291       61.98095
H         20.89332       55.86809       62.42859
H         19.85311       55.35391       61.08655
N         26.74146       56.50870       59.80674
C         28.06678       56.94132       60.20889
C         28.66608       56.07273       61.30031
O         27.99064       55.18806       61.80701
H         26.62886       56.18424       58.83378
H         28.03712       58.00250       60.53642
H         28.72455       56.85888       59.31592
N         29.96181       56.21213       61.70154
C         30.91311       57.15448       61.11797
C         31.91155       56.42667       60.21272
O         32.73869       57.09348       59.61101
C         31.59110       57.98470       62.23208
C         30.55085       58.79640       63.02097
O         32.29622       57.13575       63.10069
H         30.31659       55.55647       62.41689
H         30.40129       57.87643       60.45071
H         32.29910       58.69714       61.74834
H         32.88759       57.71436       63.65020
H         31.05426       59.41578       63.79309
H         29.99417       59.47486       62.33943
H         29.82504       58.12662       63.52983
N         31.84321       55.07398       60.01191
C         32.65614       54.31806       59.05373
C         32.35406       54.79888       57.63072
O         31.18153       54.85820       57.28755
C         32.32932       52.78850       59.19006
C         32.85758       52.27206       60.55953
C         32.92221       51.95160       58.03355
C         32.46652       50.82931       60.88137
H         31.13636       54.53928       60.53256
H         33.72666       54.43165       59.29866
H         31.22384       52.66427       59.14025
H         32.45786       52.89976       61.38275
H         33.96716       52.35601       60.58245
H         32.61067       50.89156       58.10857
H         32.53867       52.29883       57.05157
H         34.02923       51.99903       58.02942
H         31.36120       50.72899       60.90080
H         32.89374       50.11319       60.15200
H         32.86627       50.55854       61.88160
N         33.32262       55.06989       56.69745
C         34.75916       54.94638       56.92807
C         35.54077       54.80023       55.62660
O         35.52807       55.71210       54.81054
C         35.31899       56.14722       57.73346
C         35.11645       57.47496       57.04974
O         33.99108       57.89014       56.82296
O         36.18222       58.21691       56.69243
H         33.00598       55.29118       55.74009
H         34.95130       54.02160       57.50464
H         36.40766       55.98361       57.89176
H         34.85982       56.20771       58.73411
N         36.31875       53.69346       55.41889
C         37.31277       53.60145       54.35613
C         37.12992       52.36590       53.47250
O         37.12726       51.26708       54.01223
C         38.70510       53.50445       55.02024
C         39.80731       53.43980       53.99050
C         40.55751       52.26246       53.82612
C         40.07965       54.54837       53.17268
C         41.55502       52.19429       52.84973
C         41.08193       54.47806       52.20177
C         41.81701       53.30105       52.03805
H         36.29590       52.92882       56.11152
H         37.29760       54.52736       53.75658
H         38.72394       52.59000       55.65562
H         38.88285       54.37234       55.69177
H         40.36023       51.39249       54.44051
H         39.51446       55.46499       53.28663
H         42.12192       51.28155       52.71994
H         41.28566       55.33545       51.57407
H         42.58894       53.24631       51.28193
N         37.08980       52.43816       52.10183
C         37.06601       53.66337       51.32028
C         35.65394       54.22936       51.24613
O         35.49797       55.34876       50.77922
C         37.57201       53.20325       49.95154
C         36.94493       51.82697       49.83615
C         37.15166       51.26819       51.24482
H         37.77385       54.42926       51.69187
H         37.37145       53.90238       49.11158
H         38.67459       53.05207       50.02467
H         35.85507       51.97615       49.66830
H         37.33974       51.18262       49.02243
H         36.37091       50.51156       51.47504
H         38.16373       50.81949       51.35556
N         34.57467       53.49436       51.65221
C         33.20224       53.97877       51.60896
C         32.82505       54.31566       50.16710
O         32.84366       53.40043       49.35509
C         32.22856       52.89566       52.14149
C         32.48055       52.52449       53.61512
C         31.55477       51.42452       54.05030
O         32.00799       50.36005       54.44115
O         30.22095       51.60499       54.01262
H         34.72844       52.53495       51.98583
H         33.12716       54.84062       52.28868
H         32.32747       51.97967       51.51528
H         31.18481       53.26962       52.04756
H         32.31927       53.41370       54.25855
H         33.52447       52.17802       53.76334
N         32.48010       55.56205       49.72011
C         32.43163       56.78993       50.49228
H         33.12526       57.52778       50.03714
H         31.40277       57.20367       50.45630
H         32.71712       56.68878       51.54890
H         32.23740       55.65796       48.72151
Ca        21.29094       54.23824       56.25256
O         21.22848       57.38948       56.50709
H         22.05385       57.92358       56.38911
H         20.52580       58.05755       56.70802
O         18.72125       55.40908       58.27992
H         17.90441       55.20466       57.75890
H         18.68042       56.38644       58.43327
O         20.36576       52.63843       59.00074
H         20.14567       52.88610       59.93365
H         20.88005       51.79642       59.08258

Ca 1.0



