%chk=apoCaM-CA-Ng.loop2.water4.frame12.chk
%nprocshared=20
%mem=10GB
%nosave
#b3lyp/svp scf=(tight,noincore,xqc) Test 
#IOP(5/87=12) Density=Current Pop=(MK,readradii) iop(6/33=2) iop(6/42=6)

apoCaM-CA-Ng.loop2.water4.frame12 

   -2  1 
C         52.62085       50.57395       59.34921
C         51.55196       51.56952       59.68388
O         50.42649       51.17528       59.95275
H         53.46006       50.66539       60.06922
H         52.22188       49.53787       59.38400
H         52.99666       50.77432       58.32289
N         51.84421       52.89860       59.68533
C         50.84777       53.93330       59.92923
C         49.81492       53.94024       58.81442
O         48.63460       53.97116       59.12089
C         51.51785       55.31411       60.05101
C         50.52028       56.37155       60.44657
O         50.32996       57.33892       59.72777
O         49.83582       56.25661       61.60232
H         52.81868       53.18233       59.49735
H         50.35604       53.73574       60.91032
H         52.01412       55.58548       59.09400
H         52.29184       55.27079       60.84814
N         50.19134       53.87850       57.49658
C         49.26560       53.86927       56.35771
C         48.28693       52.68507       56.34595
O         47.40979       52.66412       55.49559
C         48.49720       55.19817       56.30648
H         51.19903       53.83506       57.28032
H         49.86250       53.81361       55.41988
H         49.21326       56.04683       56.27715
H         47.87369       55.24533       55.38801
H         47.83027       55.32031       57.18384
N         48.35912       51.68266       57.26834
C         47.37048       50.62576       57.45643
C         46.02095       51.23977       57.80773
O         45.02116       50.92396       57.17391
C         47.30244       49.64369       56.25890
C         46.53506       48.38029       56.59430
O         46.06998       48.18137       57.84507
O         46.44184       47.48806       55.76740
H         49.13421       51.67938       57.93642
H         47.71839       50.04027       58.33620
H         48.33536       49.32130       56.00362
H         46.86367       50.14293       55.36958
N         45.93947       52.17254       58.79796
C         44.70453       52.83925       59.17939
C         44.43845       52.83273       60.67678
O         43.39065       53.32823       61.06094
H         46.81006       52.46445       59.25683
H         43.83485       52.38386       58.65859
H         44.76611       53.90258       58.86182
N         45.34060       52.34915       61.58578
C         45.13558       52.38304       63.03039
C         46.15147       53.30284       63.67669
O         47.34782       53.08472       63.54860
C         45.29672       50.97431       63.63130
C         44.14052       50.07338       63.30310
N         42.91356       50.31540       63.82203
O         44.31776       49.09416       62.59923
H         46.23847       51.97019       61.26440
H         44.12249       52.76277       63.28500
H         45.34996       51.03159       64.74082
H         46.25452       50.53792       63.26940
H         42.75604       51.11664       64.45134
H         42.12550       49.68192       63.62277
N         45.71455       54.34310       64.43801
C         46.58391       55.22417       65.19117
C         47.32465       54.48159       66.28149
O         46.72222       53.67607       66.97748
H         44.70071       54.51397       64.51734
H         45.94232       55.97739       65.69755
H         47.27587       55.77447       64.51663
N         48.61910       54.79712       66.55587
C         49.36080       54.23297       67.68120
C         49.80892       52.80048       67.43284
O         49.92192       52.06115       68.40115
C         50.54958       55.16009       68.05323
C         51.38756       54.64639       69.22907
O         51.39408       55.35511       66.94622
H         49.05105       55.55473       66.00519
H         48.70052       54.23705       68.57912
H         50.10398       56.13275       68.38158
H         51.29487       56.30307       66.66314
H         51.91415       53.70809       68.95648
H         52.15722       55.40151       69.49578
H         50.74877       54.46022       70.11783
N         50.16721       52.36356       66.19105
C         50.73974       51.03603       65.94887
C         49.88680       50.21239       65.00920
O         49.13943       50.76619       64.21410
C         52.21070       51.13527       65.44648
C         52.34314       52.07589       64.21388
C         53.11125       51.58618       66.60940
C         53.75442       52.15302       63.63267
H         50.05794       53.00756       65.39470
H         50.75655       50.45235       66.89555
H         52.54614       50.11257       65.16042
H         52.05127       53.11218       64.48624
H         51.66574       51.71947       63.40840
H         52.84400       52.60859       66.94581
H         52.99993       50.88556       67.46546
H         54.18110       51.56191       66.32335
H         53.74763       52.82706       62.74940
H         54.46869       52.58114       64.36537
H         54.09951       51.14779       63.31572
N         49.90667       48.84806       65.11417
C         49.04434       47.98860       64.31441
C         48.82789       46.63129       65.00142
O         48.73853       45.61672       64.32566
C         49.65694       47.87344       62.89678
C         48.76319       47.24810       61.86664
O         49.17637       47.10744       60.72653
O         47.50693       46.86829       62.16920
H         50.50576       48.42131       65.83749
H         48.04077       48.46957       64.27688
H         50.60373       47.29233       62.96964
H         49.90819       48.88618       62.51706
N         48.70058       46.55308       66.36134
C         48.40966       45.31609       67.08651
C         49.44327       44.23098       66.78776
O         50.62173       44.47887       67.00707
C         48.37802       45.59405       68.60989
C         47.94406       44.38353       69.40410
C         46.65462       43.85151       69.22968
C         48.81538       43.77773       70.32660
C         46.24928       42.72675       69.95235
C         48.40412       42.65299       71.05039
C         47.12335       42.12672       70.86122
H         48.79580       47.41964       66.91194
H         47.39696       44.99235       66.78218
H         47.66661       46.41937       68.82897
H         49.38932       45.93102       68.93192
H         45.96371       44.30424       68.53003
H         49.81248       44.16987       70.48356
H         45.25691       42.32060       69.80574
H         49.07868       42.18744       71.75735
H         46.80701       41.25514       71.41946
N         49.09162       42.99368       66.31029
C         50.04638       41.93400       66.03249
C         50.82758       42.22283       64.76323
O         52.01518       41.93265       64.73269
C         49.16383       40.68225       65.94063
C         47.87672       41.20814       65.35361
C         47.72650       42.54634       66.07725
H         50.75507       41.75300       66.87290
H         49.62120       39.81159       65.42329
H         48.91765       40.37076       66.98244
H         48.05494       41.38292       64.27458
H         46.99634       40.53684       65.43901
H         47.13667       43.23179       65.43271
H         47.23578       42.40884       67.06137
N         50.23933       42.82330       63.68619
C         50.95209       43.10201       62.44478
C         52.10436       44.08568       62.64608
O         52.89078       44.24144       61.72171
C         49.99455       43.69305       61.38617
C         48.81282       42.78063       60.99802
C         47.93703       43.51437       60.01923
O         47.79852       43.10399       58.87890
O         47.35152       44.66706       60.40221
H         49.25224       43.09703       63.75141
H         51.36484       42.14061       62.06561
H         50.56855       43.91785       60.45907
H         49.59888       44.64703       61.79082
H         48.19427       42.51344       61.87883
H         49.20605       41.84428       60.54591
N         52.25809       44.80184       63.80000
C         53.34583       45.73089       64.02931
H         54.05530       45.77590       63.17705
H         52.93260       46.74698       64.20079
H         53.90759       45.41623       64.93397
H         51.57253       44.71314       64.56040
Ca        46.75248       46.36881       59.02484
O         44.88433       44.95305       57.42132
H         43.95548       45.28589       57.50098
H         44.79358       44.00840       57.14132
O         46.60631       49.10394       60.57394
H         45.73468       49.49580       60.31731
H         47.19438       49.88046       60.74800
O         44.38902       46.51158       60.96112
H         43.69167       47.19818       60.80966
H         44.67850       46.64762       61.89816
O         48.90299       45.74860       57.11766
H         49.80998       45.41983       57.33794
H         48.33020       44.94248       57.15852

Ca 1.0



