%chk=apoCaM-CA-Ng.loop1.water3.frame433.chk
%nprocshared=20
%mem=10GB
%nosave
#b3lyp/svp scf=(tight,noincore,xqc) Test 
#IOP(5/87=12) Density=Current Pop=(MK,readradii) iop(6/33=2) iop(6/42=6)

apoCaM-CA-Ng.loop1.water3.frame433 

   0  1 
C        109.08482       70.09367       69.15429
C        108.29787       70.12926       67.87724
O        107.37950       69.33618       67.72482
H        109.88388       70.86528       69.16021
H        108.40734       70.28477       70.01283
H        109.55601       69.09640       69.27303
N        108.59245       71.04334       66.91182
C        107.83168       71.15469       65.67232
C        107.97222       69.94400       64.74954
O        107.29917       69.93298       63.73447
C        108.21809       72.45360       64.92361
C        109.66477       72.49648       64.50021
O        110.11199       71.66632       63.72491
O        110.47070       73.46971       64.96558
H        109.34936       71.72009       67.09556
H        106.76013       71.25620       65.94450
H        108.01507       73.31856       65.59269
H        107.57505       72.57909       64.02964
N        108.85126       68.92584       64.97621
C        109.06823       67.86144       63.99718
C        108.08409       66.70916       64.12223
O        107.88162       66.26572       65.24417
C        110.46706       67.23625       64.16095
C        111.59422       68.20193       63.78875
C        112.91371       67.42652       63.65388
C        114.08185       68.30360       63.18771
N        114.47410       69.28266       64.20035
H        109.48465       68.98281       65.78596
H        109.03997       68.30590       62.99416
H        110.52984       66.37966       63.46258
H        110.61530       66.83036       65.18655
H        111.65528       69.00748       64.54925
H        111.37060       68.65752       62.79868
H        112.76917       66.64055       62.87815
H        113.17267       66.92288       64.61028
H        113.81353       68.81862       62.23791
H        114.94951       67.63879       62.98128
H        114.74133       68.79050       65.08390
H        115.30132       69.81627       63.84919
H        113.70009       69.95789       64.38733
N        107.57418       66.01445       63.04907
C        107.65200       66.33642       61.61641
C        109.06416       66.65317       61.12119
O        109.31583       67.77947       60.72156
C        106.63591       67.44086       61.26292
C        105.22019       67.07280       61.59490
O        104.33043       67.88850       61.41521
O        104.92371       65.87219       62.12818
H        107.06000       65.14788       63.27339
H        107.29564       65.45813       61.03364
H        106.65502       67.62542       60.17264
H        106.89280       68.36506       61.80963
N        110.06075       65.73482       61.06907
C        109.89010       64.33937       61.42395
C        111.14203       63.52574       61.14475
O        112.14562       64.07946       60.71729
H        110.97069       66.06805       60.71639
H        109.07572       63.91864       60.79509
H        109.61582       64.25550       62.49621
N        111.17364       62.17528       61.29728
C        110.06151       61.35936       61.76443
C        109.46779       60.63251       60.58088
O        110.19201       59.98506       59.83684
C        110.49441       60.44575       62.93211
C        111.60095       59.44981       62.67514
O        112.13749       59.34076       61.58515
O        112.01097       58.66251       63.68693
H        112.03549       61.69487       60.99918
H        109.25617       61.99394       62.18761
H        109.60224       59.88244       63.28091
H        110.82754       61.10511       63.76299
N        108.13843       60.75218       60.30891
C        107.55750       60.25791       59.08116
C        108.00700       61.14529       57.95036
O        108.65161       60.66949       57.02682
H        107.51924       61.24701       60.96878
H        106.44907       60.32746       59.13329
H        107.82727       59.18915       58.92854
N        107.65619       62.46577       57.96343
C        107.97281       63.40266       56.89431
C        108.58662       64.68722       57.45759
O        108.05352       65.24297       58.40736
C        106.68535       63.70520       56.09364
C        107.01391       64.38738       54.76183
O        105.79719       64.50764       56.82880
H        107.06838       62.80309       58.74158
H        108.67236       62.92488       56.17229
H        106.18774       62.74566       55.81747
H        105.35992       63.92165       57.49895
H        107.55720       65.34001       54.91532
H        107.65540       63.72225       54.14375
H        106.07864       64.58402       54.19681
N        109.68453       65.23829       56.87032
C        110.35109       66.47827       57.30142
C        109.50746       67.77802       57.21468
O        110.07447       68.83033       57.47271
C        111.70553       66.65898       56.51754
C        111.60852       66.72199       54.96272
C        112.69389       65.53749       56.89644
C        110.73686       67.84302       54.40349
H        110.08161       64.71696       56.07750
H        110.62957       66.37232       58.37078
H        112.17825       67.60398       56.86648
H        111.25001       65.76077       54.54012
H        112.63537       66.88650       54.56720
H        113.68105       65.71456       56.41684
H        112.85381       65.51404       57.99525
H        112.32906       64.54096       56.57073
H        109.67062       67.67419       54.64560
H        111.07177       68.82791       54.79126
H        110.81686       67.85110       53.29610
N        108.19166       67.81150       56.84316
C        107.44142       69.04763       56.54794
C        107.31900       70.10148       57.66039
O        106.84865       71.18764       57.35142
C        106.00077       68.70028       56.07415
C        105.15075       68.05041       57.19707
O        106.04596       67.89839       54.91751
H        107.72353       66.92224       56.65249
H        107.98066       69.54507       55.71162
H        105.47817       69.63817       55.78711
H        105.92475       66.95019       55.17693
H        105.60147       67.10179       57.55536
H        105.05610       68.72771       58.06941
H        104.12881       67.83444       56.82283
N        107.64837       69.85691       58.95718
C        107.46880       70.79389       60.07837
C        105.99189       71.16506       60.31660
O        105.15352       70.94504       59.45618
C        108.36975       72.05462       59.91167
C        109.85906       71.68729       59.81231
O        108.18087       72.96890       60.96192
H        108.03248       68.93647       59.17069
H        107.80775       70.26703       60.99500
H        108.09218       72.58238       58.97648
H        108.52582       72.54961       61.79070
H        110.46656       72.60852       59.68498
H        110.19436       71.16791       60.73638
H        110.04669       71.02566       58.94369
N        105.61208       71.71978       61.50800
C        104.26637       72.20890       61.82148
C        103.57854       71.42628       62.94460
O        102.47159       71.80755       63.30387
C        104.37994       73.69465       62.24204
C        104.70579       74.62078       61.06221
C        104.91650       76.06524       61.54778
C        104.94127       77.09708       60.40671
N        105.97434       76.82317       59.40826
H        106.32416       71.82620       62.24152
H        103.59013       72.13124       60.94212
H        105.14686       73.78703       63.04433
H        103.41129       74.05081       62.65765
H        103.84502       74.58300       60.35900
H        105.61993       74.27751       60.53314
H        105.86121       76.11458       62.13367
H        104.08018       76.35949       62.21931
H        105.11818       78.10183       60.85213
H        103.94652       77.11757       59.90863
H        105.76454       75.93265       58.90307
H        105.97492       77.59881       58.70663
H        106.91490       76.77044       59.86071
N        104.12438       70.32371       63.53217
C        103.46054       69.59301       64.61421
C        103.27698       70.48256       65.82759
O        104.25673       70.97714       66.36712
C        104.26837       68.33103       64.98993
C        103.69764       67.51598       66.17097
C        102.23994       67.12042       66.05825
O        101.45797       67.49381       66.91784
O        101.77987       66.33018       65.06485
H        105.02338       69.97573       63.18404
H        102.46768       69.24868       64.25001
H        105.31004       68.61656       65.25601
H        104.33100       67.69030       64.09738
H        103.82347       68.11996       67.09653
H        104.31350       66.59903       66.29257
N        102.03095       70.70659       66.32642
C        101.80590       71.51642       67.50235
H        100.72040       71.54777       67.73609
H        102.34209       71.07800       68.37117
H        102.16517       72.55174       67.32527
H        101.21299       70.27690       65.86816
Ca       103.04352       65.72328       63.31846
O        102.45850       64.99245       60.09725
H        102.44739       64.48641       59.24621
H        102.30747       65.93367       59.82937
O        100.84499       67.59449       62.30019
H        100.40321       67.38266       61.44003
H        101.68421       68.05146       62.04175
O        100.31590       64.24302       62.34210
H        100.21772       63.88307       63.25930
H         99.74410       63.65926       61.78289

Ca 1.0



