%chk=apoCaM-CA-Ng.loop1.water3.frame1383.chk
%nprocshared=20
%mem=10GB
%nosave
#b3lyp/svp scf=(tight,noincore,xqc) Test 
#IOP(5/87=12) Density=Current Pop=(MK,readradii) iop(6/33=2) iop(6/42=6)

apoCaM-CA-Ng.loop1.water3.frame1383 

   0  1 
C         18.54419       77.91825       39.31372
C         17.90643       76.56447       39.27776
O         18.57485       75.61077       38.90944
H         19.59950       77.86081       38.96741
H         17.98690       78.61278       38.65320
H         18.53463       78.30350       40.35458
N         16.61340       76.39893       39.68063
C         15.96830       75.09138       39.71339
C         15.78316       74.53961       38.30798
O         14.86503       74.93536       37.60590
C         14.60764       75.14530       40.44471
C         14.71480       75.53472       41.89897
O         15.79572       75.76544       42.41934
O         13.59565       75.61341       42.64279
H         16.09852       77.22482       40.02280
H         16.62188       74.39870       40.29179
H         14.13028       74.14302       40.39963
H         13.94031       75.87029       39.93033
N         16.66900       73.62514       37.83552
C         16.56984       72.97869       36.53123
C         15.51028       71.88459       36.52751
O         14.65149       71.95164       35.65382
C         17.95554       72.47304       36.07039
C         18.86046       73.68712       35.78471
C         20.27360       73.30188       35.35073
C         21.06672       74.56910       34.99049
N         22.44233       74.24741       34.61962
H         17.48887       73.41724       38.42175
H         16.27448       73.73165       35.76497
H         17.84526       71.90220       35.12187
H         18.41326       71.80246       36.82687
H         18.94009       74.32456       36.68892
H         18.38932       74.28798       34.97429
H         20.22922       72.63445       34.46304
H         20.77473       72.76411       36.18483
H         21.07817       75.26785       35.85713
H         20.56794       75.08341       34.13753
H         22.45308       73.59281       33.80439
H         22.93718       75.12968       34.35393
H         22.93683       73.81371       35.43256
N         15.41938       70.86117       37.42845
C         16.26810       70.66276       38.60494
C         15.47018       70.98663       39.86620
O         14.27700       71.21741       39.79930
C         16.92488       69.26921       38.59384
C         15.95511       68.16141       38.31241
O         14.89529       67.95770       39.11159
O         16.10897       67.46232       37.32362
H         14.62734       70.21038       37.31768
H         17.10283       71.36527       38.61471
H         17.45182       69.08405       39.55548
H         17.69115       69.25577       37.78657
N         16.13706       71.15844       41.04626
C         15.51195       71.69443       42.24721
C         14.50224       70.74572       42.89925
O         15.17999       69.57381       43.17610
H         17.15437       71.00972       41.06618
H         15.03163       72.66593       42.01952
H         16.31738       71.89021       42.99170
N         14.08738       71.34345       44.18100
C         13.36899       70.45271       45.12808
C         13.63549       70.93701       46.55132
O         14.17724       72.02527       46.69368
C         11.85663       70.46408       44.82043
C         11.57083       69.94368       43.44495
O         11.91033       68.68235       43.12004
O         11.03304       70.66027       42.61631
H         13.59405       72.25686       44.04289
H         13.77630       69.42294       45.06429
H         11.47695       71.50629       44.91626
H         11.29317       69.83844       45.53162
N         13.33529       70.22795       47.68284
C         12.79177       68.88033       47.77529
C         13.74289       67.83222       47.24766
O         14.93933       67.93658       47.47899
H         13.54710       70.68090       48.58654
H         11.78072       68.79485       47.33559
H         12.66274       68.64952       48.85554
N         13.25669       66.72331       46.62402
C         14.11079       65.63621       46.15593
C         14.90637       66.07273       44.94085
O         14.30894       66.54191       43.99475
C         13.27283       64.37139       45.83962
C         14.16135       63.20862       45.36237
O         12.29373       64.65647       44.87715
H         12.23336       66.62654       46.53173
H         14.79374       65.32991       46.98019
H         12.77623       64.06694       46.79104
H         11.59991       63.95017       44.95632
H         14.93576       62.97590       46.12424
H         13.54793       62.29923       45.19448
H         14.67237       63.45896       44.40855
N         16.25116       65.86083       44.89475
C         17.16976       66.10702       43.77797
C         16.77804       65.27008       42.51066
O         15.58343       65.61482       41.81943
C         17.49940       67.61383       43.50325
C         17.41064       68.52919       44.75196
C         18.83894       67.82554       42.76928
C         18.38951       68.21191       45.87406
H         16.67401       65.41663       45.72439
H         18.13494       65.68833       44.14255
H         16.77295       67.99517       42.81359
H         16.38154       68.48044       45.16633
H         17.57686       69.58308       44.43276
H         19.69067       67.45033       43.37153
H         18.85515       67.32840       41.78215
H         18.99294       68.90763       42.56579
H         19.43604       68.31182       45.52543
H         18.22502       68.93764       46.69916
H         18.21870       67.19138       46.26774
N         17.91686       65.11753       41.59808
C         17.63902       64.40503       40.33732
C         17.30613       62.92165       40.48475
O         17.04842       62.32573       39.44965
C         18.81911       64.61461       39.35054
C         20.15281       64.04991       39.85380
O         18.98384       65.98533       39.09526
H         18.69918       64.65351       42.11261
H         16.75663       64.87335       39.84743
H         18.59266       64.08884       38.39176
H         18.30643       66.23316       38.41310
H         20.48939       64.57289       40.77275
H         20.06953       62.96254       40.06052
H         20.93400       64.20127       39.07901
N         17.27402       62.25021       41.67922
C         16.89362       60.83568       41.77468
C         15.45593       60.65328       41.29889
O         14.54103       60.84566       42.08648
C         17.06961       60.28338       43.21928
C         18.54579       60.22519       43.63081
O         16.35343       61.08205       44.12900
H         17.52109       62.74827       42.54475
H         17.55958       60.24069       41.11008
H         16.67131       59.24162       43.24100
H         16.31991       60.58946       44.99042
H         19.00751       61.23369       43.62400
H         18.63300       59.80451       44.65596
H         19.10654       59.56164       42.93903
N         15.19912       60.34478       39.98955
C         13.87591       60.24607       39.37416
C         13.09739       61.54783       39.49870
O         12.86071       62.01449       40.60017
C         13.08849       59.03081       39.88877
C         13.86808       57.73747       39.57804
C         13.08391       56.44855       39.84241
C         12.67353       56.27701       41.30868
N         12.04656       54.97223       41.51513
H         15.99991       60.19058       39.35933
H         14.02587       60.05886       38.28668
H         12.11802       58.99830       39.34500
H         12.88287       59.12129       40.97529
H         14.81465       57.72290       40.16092
H         14.13115       57.72706       38.49653
H         13.74129       55.59950       39.55229
H         12.17948       56.42120       39.19542
H         11.95561       57.07652       41.59340
H         13.57225       56.35611       41.95916
H         11.75190       54.88755       42.51423
H         11.20580       54.87236       40.90087
H         12.73123       54.21090       41.29953
N         12.63618       62.18256       38.38608
C         11.94257       63.46377       38.44951
C         12.93673       64.60232       38.62708
O         12.80278       65.31129       39.61314
C         11.00355       63.67819       37.24559
C          9.88498       62.62298       37.24064
C          8.93938       62.83621       36.09755
O          7.63919       63.09270       36.33694
O          9.33930       62.76357       34.94667
H         12.75377       61.72093       37.47296
H         11.26122       63.46530       39.33292
H         11.55177       63.65022       36.28489
H         10.53108       64.68179       37.34000
H          9.31790       62.69033       38.19603
H         10.31439       61.60174       37.16207
N         13.96322       64.88847       37.77217
C         14.32480       64.18409       36.55977
H         15.36780       63.81554       36.65305
H         13.68684       63.32176       36.33399
H         14.27267       64.88636       35.70141
H         14.56327       65.68560       38.01209
Ca        14.75872       67.79082       41.81391
O         12.65627       64.28143       42.19672
H         13.57583       63.92849       42.29258
H         12.75400       65.25964       42.30831
O         10.48634       66.57092       41.50631
H         10.09578       66.68089       40.60347
H          9.93825       67.15562       42.08760
O         12.00848       69.06983       39.93245
H         11.13704       69.45037       40.20751
H         12.20439       69.50551       39.06537

Ca 1.0



