%chk=apoCaM-CA-Ng.loop4.water7.frame518.chk
%nprocshared=20
%mem=10GB
%nosave
#b3lyp/svp scf=(tight,noincore,xqc) Test 
#IOP(5/87=12) Density=Current Pop=(MK,readradii) iop(6/33=2) iop(6/42=6)

apoCaM-CA-Ng.loop4.water7.frame518 

   -3  1 
C         86.21072       59.50834       54.44779
C         86.46920       58.16976       53.82505
O         85.87351       57.19093       54.25123
H         85.47298       59.42355       55.27422
H         87.15320       59.93208       54.84573
H         85.80046       60.19612       53.67804
N         87.33108       58.06612       52.76994
C         87.61582       56.83274       52.03431
C         86.40812       56.29700       51.26877
O         86.55493       55.27163       50.61706
C         88.20434       55.74105       52.96006
C         89.45372       56.20650       53.64825
O         90.42565       56.54532       52.99238
O         89.51357       56.23194       54.99315
H         87.81674       58.92067       52.45637
H         88.38445       57.06409       51.26283
H         88.46284       54.84235       52.35914
H         87.46007       55.42492       53.71960
N         85.19197       56.92206       51.28203
C         84.01364       56.38088       50.60714
C         84.22595       56.32969       49.08880
O         85.13305       56.99507       48.60802
C         82.71886       57.16538       51.01938
C         82.76014       58.64623       50.55628
C         82.49064       57.02472       52.54174
C         81.49170       59.42777       50.89995
H         85.08537       57.78848       51.81375
H         83.90833       55.33874       50.97221
H         81.83749       56.70732       50.53136
H         82.87405       58.66592       49.45132
H         83.62060       59.18696       50.99926
H         83.28439       57.52789       53.12975
H         81.51277       57.45034       52.84304
H         82.47526       55.95201       52.82992
H         80.59873       58.93012       50.46689
H         81.36799       59.52467       51.99808
H         81.56897       60.45350       50.48256
N         83.50200       55.52522       48.24996
C         82.44170       54.61804       48.67555
C         82.87182       53.16893       48.65785
O         82.24571       52.40106       49.37195
C         81.13312       54.85808       47.89261
C         81.20136       54.57557       46.40853
O         82.32447       54.11815       45.82162
O         80.20855       54.75761       45.72283
H         83.76670       55.52807       47.25373
H         82.20374       54.79379       49.73435
H         80.83411       55.91906       48.03391
H         80.33398       54.21535       48.32291
N         83.94684       52.71321       47.94842
C         84.39111       51.33519       48.05170
C         83.34061       50.35908       47.56649
O         83.14847       50.22987       46.36617
H         84.49341       53.35336       47.35547
H         84.63511       51.13912       49.11827
H         85.32730       51.17563       47.47297
N         82.61765       49.64191       48.47254
C         81.65241       48.60062       48.13001
C         80.20901       48.99711       48.43934
O         79.35133       48.12429       48.44900
C         82.06561       47.27889       48.83027
C         82.08155       47.28365       50.34361
O         81.77853       48.27183       50.99048
O         82.44562       46.16407       50.99594
H         82.77110       49.84633       49.46965
H         81.67433       48.38801       47.03881
H         83.08787       47.01297       48.48504
H         81.37836       46.46980       48.50311
N         79.84050       50.30134       48.60329
C         78.46614       50.72058       48.84167
C         77.95767       50.39091       50.23087
O         76.81377       50.71271       50.51655
H         80.54091       51.04023       48.48859
H         77.80492       50.28005       48.06566
H         78.41088       51.82799       48.74778
N         78.76393       49.81778       51.16838
C         78.39821       49.59972       52.55974
C         78.10510       50.92305       53.23453
O         77.16431       51.03483       54.00972
C         77.30612       48.52084       52.71689
C         77.83111       47.16453       52.21065
C         76.83367       46.04024       52.31905
N         77.19856       44.79119       51.94818
O         75.70255       46.24153       52.73716
H         79.73206       49.58727       50.92573
H         79.30691       49.22122       53.08173
H         76.38814       48.81664       52.16589
H         77.04766       48.41007       53.79349
H         78.72490       46.88819       52.81265
H         78.13505       47.25176       51.14573
H         78.15143       44.60556       51.60048
H         76.53316       44.00708       52.01298
N         78.94787       51.96747       52.99903
C         78.92907       53.22782       53.72329
C         80.26659       53.45324       54.42927
O         80.36519       54.41579       55.17676
C         78.58351       54.41668       52.78202
C         79.58806       54.57824       51.62681
C         77.16218       54.27232       52.22092
H         79.67295       51.84542       52.27769
H         78.15542       53.19189       54.52320
H         78.60455       55.35085       53.38703
H         79.33624       55.47800       51.02600
H         80.61633       54.70629       52.01845
H         79.57242       53.69938       50.94914
H         76.90375       55.15606       51.59911
H         77.07223       53.35982       51.59471
H         76.42692       54.21063       53.05167
N         81.34375       52.62190       54.24588
C         82.60855       52.80991       54.94279
C         82.44644       52.55523       56.42423
O         81.41823       52.04916       56.85718
C         83.67887       51.82721       54.40181
C         84.09043       52.14361       52.99008
N         84.75074       53.29153       52.71541
O         83.86250       51.34473       52.09391
H         81.28960       51.83109       53.59401
H         82.94974       53.85790       54.79229
H         83.27721       50.78979       54.46364
H         84.60359       51.86390       55.01470
H         84.97661       53.96462       53.46327
H         85.06213       53.49236       51.75590
N         83.46448       52.88212       57.26237
C         83.46595       52.59638       58.68819
C         83.45149       53.87635       59.49074
O         83.47671       54.95801       58.91504
C         84.70956       51.73874       58.99679
C         84.59431       50.39846       58.31356
C         85.42553       50.05780       57.23327
C         83.63064       49.47767       58.75570
C         85.28297       48.81779       56.60018
C         83.49794       48.23685       58.13059
C         84.31834       47.90264       57.04939
O         84.16924       46.70335       56.45201
H         84.29632       53.34931       56.86573
H         82.54643       52.04555       58.98502
H         84.84034       51.56528       60.08536
H         85.60724       52.29192       58.63824
H         86.17037       50.75482       56.86955
H         82.98523       49.72090       59.59063
H         85.92000       48.56995       55.76050
H         82.75338       47.53640       58.48695
H         84.71116       46.43226       55.69773
N         83.35214       53.81485       60.84837
C         83.24350       54.98604       61.70260
C         84.38955       54.98777       62.71145
O         84.46415       54.03300       63.47435
C         81.89212       54.95409       62.44575
C         81.68028       56.21937       63.29507
C         80.38096       56.15843       64.04118
O         79.52112       57.00330       63.85068
O         80.16763       55.18204       64.94425
H         83.31597       52.88700       61.30001
H         83.20487       55.89418       61.08404
H         81.84347       54.04953       63.09205
H         81.06951       54.88827       61.69894
H         81.69446       57.11171       62.62985
H         82.49465       56.32589       64.04168
N         85.29141       56.00435       62.86592
C         85.39050       57.20681       62.04068
C         84.81422       58.40400       62.76938
O         84.46009       58.29606       63.93590
C         86.85107       57.42845       61.58187
C         87.82893       57.75172       62.72942
C         89.22891       57.91332       62.21362
O         89.79560       56.97777       61.67086
O         89.87549       59.08427       62.36764
H         85.93374       55.92428       63.66719
H         84.80828       57.09774       61.11532
H         86.88082       58.27027       60.85581
H         87.18829       56.51118       61.05012
H         87.84656       56.94348       63.48679
H         87.51192       58.69352       63.22767
N         84.64542       59.58272       62.11115
C         84.05152       60.73769       62.74705
H         83.02841       60.48899       63.10363
H         84.67582       61.06117       63.60597
H         83.97747       61.57331       62.01933
H         84.91960       59.65620       61.12009
Ca        92.09312       58.09238       54.94793
O         89.43129       59.05475       55.98406
H         89.38547       58.64746       56.88519
H         89.29380       60.02254       56.13954
O         91.24223       60.59247       53.48632
H         92.00484       61.16805       53.22627
H         90.60794       60.65915       52.72934
O         92.88824       55.16373       54.75186
H         93.16853       55.10301       53.80414
H         93.70932       54.96495       55.26812
O         93.01826       58.16669       52.10521
H         93.49590       57.47497       51.58247
H         93.45230       59.01910       51.84997
O         94.97480       58.11900       55.85484
H         95.06764       58.81753       55.15903
H         95.21133       57.27585       55.39282
O         92.78859       60.71179       56.26340
H         91.86023       60.88156       56.56289
H         93.26178       60.40951       57.07878
O         91.85363       56.69175       57.59417
H         91.28484       56.81473       58.39497
H         92.68177       57.19583       57.79637

Ca 1.0



