%chk=apoCaM-CA-Ng.loop2.water3.frame29.chk
%nprocshared=20
%mem=10GB
%nosave
#b3lyp/svp scf=(tight,noincore,xqc) Test 
#IOP(5/87=12) Density=Current Pop=(MK,readradii) iop(6/33=2) iop(6/42=6)

apoCaM-CA-Ng.loop2.water3.frame29 

   -2  1 
C         66.31304       34.47209       41.47713
C         66.19644       33.15756       42.19477
O         67.16849       32.41792       42.23184
H         67.12509       35.07716       41.93102
H         66.54752       34.29159       40.40675
H         65.36691       35.05133       41.53369
N         65.02893       32.80299       42.80061
C         64.83368       31.53210       43.49007
C         64.92777       30.36492       42.52076
O         65.63957       29.41766       42.82254
C         63.47392       31.51691       44.21221
C         63.30685       30.26938       45.03905
O         64.18300       29.98881       46.02412
O         62.37766       29.50828       44.82445
H         64.24520       33.47402       42.77818
H         65.61262       31.43049       44.28094
H         62.64799       31.60596       43.47331
H         63.42228       32.38690       44.90263
N         64.26442       30.37980       41.32012
C         64.31758       29.28866       40.34168
C         65.74240       28.96633       39.87900
O         65.94488       27.94952       39.23024
C         63.60633       28.05497       40.90871
H         63.70801       31.21242       41.07374
H         63.73778       29.58192       39.43799
H         64.12034       27.65580       41.80513
H         62.56382       28.32880       41.18165
H         63.55491       27.25579       40.13844
N         66.77108       29.81648       40.15589
C         68.17071       29.62344       39.82099
C         68.74072       28.42686       40.57079
O         69.28467       27.52059       39.95382
C         68.36717       29.55473       38.28587
C         69.75666       29.94886       37.85959
O         70.03833       29.96822       36.67300
O         70.64404       30.40825       38.76513
H         66.56344       30.70003       40.62870
H         68.69091       30.53643       40.19088
H         67.69415       30.29548       37.80296
H         68.09654       28.54747       37.90078
N         68.65634       28.37681       41.93231
C         69.13761       27.25464       42.72558
C         70.47514       27.52977       43.38742
O         70.96964       26.64412       44.07006
H         68.23715       29.17302       42.43591
H         69.25731       26.34995       42.09109
H         68.37219       27.00650       43.49313
N         71.14835       28.70148       43.19762
C         72.48354       28.95579       43.73465
C         72.51455       28.98070       45.25226
O         71.83269       29.78761       45.86859
C         73.02940       30.29521       43.20404
C         73.28706       30.22092       41.72356
N         74.24121       29.39403       41.23348
O         72.63907       30.91777       40.96186
H         70.72451       29.42641       42.60062
H         73.16490       28.15141       43.38044
H         73.99466       30.54657       43.69447
H         72.30084       31.10350       43.44007
H         74.81112       28.81163       41.86445
H         74.42606       29.34552       40.22215
N         73.35915       28.13668       45.90900
C         73.58082       28.13209       47.34380
C         74.23416       29.41216       47.81527
O         75.21534       29.83295       47.21776
H         73.91167       27.46222       45.35754
H         74.29850       27.31375       47.56921
H         72.63855       27.91483       47.89079
N         73.78919       30.04311       48.93881
C         74.42104       31.24700       49.47397
C         74.19264       32.41107       48.52443
O         75.15179       33.01554       48.06525
C         73.90230       31.54196       50.91256
C         74.61181       32.74677       51.54414
O         72.51378       31.75222       50.91989
H         73.00509       29.61904       49.45791
H         75.51440       31.05940       49.57936
H         74.13687       30.64117       51.52729
H         72.21096       31.66804       51.86172
H         75.70971       32.58125       51.56445
H         74.39232       33.67665       50.97847
H         74.26164       32.88199       52.58996
N         72.92247       32.76663       48.19201
C         72.57176       33.87973       47.31070
C         73.10817       33.67806       45.89651
O         73.70448       32.64944       45.61048
C         71.01895       34.09712       47.30450
C         70.25701       32.86000       46.74173
C         70.54421       34.49852       48.71678
C         68.74175       33.04582       46.67061
H         72.16674       32.21448       48.61182
H         73.04128       34.80578       47.71188
H         70.78398       34.96324       46.65104
H         70.44723       31.95243       47.34864
H         70.61605       32.65821       45.70971
H         69.47204       34.77771       48.71499
H         70.69314       33.68453       49.45483
H         71.10596       35.39302       49.06218
H         68.28361       32.14249       46.21458
H         68.30641       33.16061       47.68446
H         68.48659       33.92973       46.05036
N         72.90078       34.64040       44.95112
C         73.33068       34.52699       43.56253
C         74.22674       35.71831       43.15872
O         74.62124       35.79865       42.00391
C         72.04367       34.38982       42.71712
C         72.24455       33.93328       41.29782
O         71.26637       33.74195       40.59307
O         73.47133       33.69020       40.79952
H         72.36702       35.48353       45.20913
H         73.91297       33.59062       43.41765
H         71.47021       35.33904       42.74038
H         71.41114       33.60515       43.18962
N         74.62294       36.66150       44.06992
C         75.50400       37.79330       43.76943
C         74.85167       38.77292       42.79450
O         73.77797       39.26378       43.11876
C         75.80855       38.56773       45.07757
C         76.62313       39.81628       44.82407
C         77.96336       39.73805       44.41159
C         76.02315       41.07934       44.97373
C         78.68728       40.90670       44.14909
C         76.74620       42.24221       44.70238
C         78.07763       42.15693       44.29053
H         74.31980       36.56139       45.04840
H         76.46218       37.39875       43.37467
H         76.32869       37.91845       45.81513
H         74.83250       38.85619       45.52824
H         78.44501       38.77578       44.29146
H         74.98784       41.16434       45.28043
H         79.71956       40.84437       43.83063
H         76.27036       43.20874       44.80679
H         78.63494       43.06025       44.07974
N         75.45353       39.17791       41.62847
C         74.90568       40.17658       40.71674
C         73.45259       39.94222       40.38457
O         72.65193       40.85766       40.50542
C         75.77935       40.03653       39.46491
C         77.12151       39.72080       40.07638
C         76.74270       38.70669       41.15404
H         75.03895       41.18512       41.17176
H         75.47995       39.13536       38.88263
H         75.75521       40.91797       38.78913
H         77.90603       39.37631       39.37017
H         77.47864       40.65103       40.57767
H         76.61637       37.67924       40.74921
H         77.53857       38.72855       41.92395
N         73.04267       38.70018       40.01529
C         71.65211       38.35228       39.75537
C         70.81388       38.67167       40.97931
O         69.85922       39.42834       40.86251
C         71.54569       36.85728       39.39762
C         72.27121       36.52839       38.07912
C         72.24016       35.05930       37.78320
O         71.17648       34.47932       37.63470
O         73.39578       34.37711       37.66461
H         73.75729       37.95856       39.97509
H         71.26816       38.94180       38.89297
H         70.47570       36.57107       39.29596
H         71.99239       36.27392       40.22452
H         73.33508       36.83862       38.12903
H         71.79048       37.07874       37.24304
N         71.14634       38.17260       42.20060
C         70.41635       38.52060       43.39997
H         69.36195       38.18417       43.31783
H         70.88433       38.03526       44.28294
H         70.44392       39.62201       43.55098
H         71.96707       37.55668       42.28965
Ca        72.42649       31.65986       38.17966
O         73.43820       29.11701       37.70947
H         74.39348       28.85937       37.71238
H         72.94980       28.30049       37.98109
O         72.91289       31.46692       35.25141
H         72.72544       32.41564       35.04081
H         72.04950       31.11694       35.58360
O         75.28800       31.75130       39.04278
H         75.56676       32.05427       39.94307
H         76.13397       31.64963       38.53939

Ca 1.0



