%chk=apoCaM-CA-Ng.loop1.water4.frame346.chk
%nprocshared=20
%mem=10GB
%nosave
#b3lyp/svp scf=(tight,noincore,xqc) Test 
#IOP(5/87=12) Density=Current Pop=(MK,readradii) iop(6/33=2) iop(6/42=6)

apoCaM-CA-Ng.loop1.water4.frame346 

   0  1 
C         69.65708       88.54170       61.45444
C         68.80296       89.61651       60.84512
O         69.33291       90.48095       60.16183
H         70.41044       88.99742       62.12893
H         69.04758       87.82134       62.04125
H         70.17649       87.98041       60.64931
N         67.45491       89.61035       61.03220
C         66.55956       90.58252       60.41329
C         66.68698       91.99311       60.98514
O         65.96008       92.84297       60.50627
C         65.08786       90.12529       60.57762
C         64.83401       88.78923       59.93531
O         64.40004       87.75381       60.67911
O         65.00474       88.64061       58.73556
H         67.04491       88.84074       61.58462
H         66.77545       90.62162       59.32256
H         64.40285       90.85778       60.09682
H         64.83410       90.07335       61.65983
N         67.51693       92.33760       62.01367
C         67.45985       93.66371       62.64121
C         68.77408       94.40751       62.58259
O         69.79606       93.74053       62.49685
C         67.09429       93.46033       64.12685
C         65.67299       92.90988       64.29115
C         65.30542       92.81998       65.77357
C         63.86511       92.33199       65.95332
N         63.51521       92.25955       67.37038
H         68.14565       91.63395       62.42570
H         66.71422       94.29412       62.12921
H         67.17307       94.41398       64.68177
H         67.82700       92.77179       64.60347
H         65.59381       91.90688       63.81837
H         64.95706       93.59226       63.78629
H         65.40088       93.82818       66.23524
H         66.00497       92.12386       66.28565
H         63.75152       91.32636       65.49112
H         63.17100       93.03664       65.44450
H         64.14762       91.58723       67.86204
H         63.59657       93.20611       67.80852
H         62.52801       91.92825       67.46154
N         68.89870       95.77298       62.72528
C         67.88951       96.85622       62.70805
C         66.71500       96.75095       63.68917
O         65.81867       95.95565       63.46828
C         67.40559       97.14555       61.28418
C         68.57046       97.61614       60.46161
O         69.17853       98.63887       60.73775
O         68.97477       96.84990       59.45447
H         69.87135       96.11641       62.78603
H         68.45151       97.76888       62.97213
H         66.63187       97.93620       61.28052
H         66.95368       96.23143       60.84264
N         66.58147       97.57553       64.76908
C         67.50819       98.65754       65.03759
C         67.22728       99.44010       66.30002
O         66.34036       99.07809       67.05921
H         65.76457       97.43795       65.38356
H         67.43254       99.35975       64.17712
H         68.53935       98.25237       65.13207
N         67.93938      100.56585       66.60198
C         68.96102      101.14264       65.72761
C         68.44034      102.42760       65.11911
O         67.36996      102.88909       65.49424
C         70.30756      101.28644       66.45954
C         70.23620      102.16749       67.67417
O         69.94066      103.34672       67.56770
O         70.51813      101.65867       68.88878
H         67.69426      101.07893       67.46323
H         69.16473      100.48375       64.86303
H         71.07583      101.68929       65.76479
H         70.63752      100.27057       66.77064
N         69.10761      103.00549       64.08391
C         68.56815      104.12332       63.33199
C         67.24336      103.73695       62.71146
O         66.25434      104.42337       62.92642
H         69.99818      102.59402       63.76486
H         69.27565      104.37906       62.51331
H         68.45749      105.01406       63.98792
N         67.15971      102.61808       61.93809
C         65.92566      102.16864       61.29975
C         64.86976      101.83210       62.34366
O         65.09535      100.95645       63.16871
C         66.17448      100.91725       60.42246
C         67.17341      101.17351       59.28935
O         64.95884      100.50042       59.85598
H         68.02115      102.06795       61.80471
H         65.55549      102.97870       60.63287
H         66.57566      100.12417       61.08893
H         65.07034       99.54753       59.60179
H         68.16565      101.47538       59.67664
H         67.31183      100.23940       58.70378
H         66.79060      101.96603       58.61306
N         63.67320      102.48508       62.33942
C         62.59413      102.18297       63.28132
C         62.04032      100.76459       63.12484
O         61.29071      100.35401       64.00197
C         61.41869      103.21420       63.16748
C         60.77628      103.21394       61.74682
C         61.89573      104.61667       63.58784
C         59.54526      104.11200       61.61461
H         63.54770      103.23747       61.65001
H         63.01915      102.25667       64.30807
H         60.63474      102.91549       63.89997
H         60.45076      102.18378       61.49754
H         61.50616      103.53368       60.97607
H         62.66900      105.00909       62.89631
H         61.05047      105.33353       63.61965
H         62.31945      104.57898       64.61398
H         58.76289      103.80811       62.34073
H         59.80328      105.17936       61.76710
H         59.13256      104.01519       60.58735
N         62.28369       99.99314       62.02077
C         61.65678       98.68664       61.81042
C         62.65253       97.60436       61.40387
O         63.81266       97.89110       61.14535
C         60.54063       98.81082       60.73654
C         61.06618       99.28581       59.37463
O         59.55716       99.71332       61.17114
H         62.85047      100.38337       61.25783
H         61.17456       98.34199       62.75218
H         60.06855       97.81519       60.56745
H         58.99326       99.23120       61.83094
H         60.23224       99.31783       58.64283
H         61.49612      100.30651       59.44309
H         61.84256       98.59629       58.98610
N         62.22648       96.31057       61.32510
C         63.04225       95.19031       60.84745
C         63.13155       95.19644       59.31344
O         62.57097       96.08518       58.68846
C         62.46297       93.84316       61.38024
C         61.07306       93.48285       60.82939
O         62.40840       93.89473       62.78306
H         61.26545       96.11865       61.64164
H         64.06307       95.27036       61.28363
H         63.16322       93.03121       61.08164
H         62.44041       92.95735       63.10988
H         60.30104       94.21992       61.12616
H         61.09438       93.41009       59.72369
H         60.76420       92.49409       61.23095
N         63.76318       94.18438       58.64130
C         63.75150       94.02479       57.18775
C         65.16304       93.89268       56.58556
O         65.26809       93.77759       55.37325
C         62.89936       92.76545       56.90212
C         62.48900       92.56350       55.43583
C         61.64369       91.28573       55.30269
C         61.15429       91.02218       53.86991
N         60.17423       92.01567       53.42608
H         64.17713       93.42061       59.17960
H         63.25253       94.90011       56.71823
H         61.95111       92.86372       57.47658
H         63.43749       91.86876       57.28386
H         63.37421       92.45545       54.77973
H         61.90742       93.45354       55.11762
H         60.76404       91.32808       55.98193
H         62.27692       90.42505       55.61231
H         60.66943       90.02092       53.85390
H         62.01794       90.99506       53.16930
H         60.60197       92.96598       53.36641
H         59.83097       91.75070       52.47485
H         59.35905       92.03176       54.08180
N         66.29547       93.90768       57.34963
C         67.64456       93.75098       56.79489
C         67.83462       92.38679       56.17093
O         67.71024       91.38345       56.86022
C         68.68607       93.96913       57.90620
C         70.18058       93.80684       57.54816
C         70.67949       94.58283       56.34892
O         70.45200       94.17672       55.22262
O         71.45376       95.67563       56.50908
H         66.20684       94.05621       58.36276
H         67.80811       94.54494       56.03315
H         68.47754       93.28569       58.76072
H         68.51990       94.99240       58.25442
H         70.42908       92.73535       57.39038
H         70.74845       94.13365       58.44731
N         68.18697       92.28531       54.86072
C         68.47436       91.01684       54.23295
H         69.32356       90.52544       54.75534
H         67.58056       90.36120       54.26840
H         68.76407       91.18101       53.17300
H         68.28373       93.13942       54.29113
Ca        70.84446       96.93436       58.24702
O         71.02478      100.59684       58.80334
H         71.54975      101.41402       58.61064
H         70.16492      100.73874       58.33377
O         72.99263       98.90809       56.87783
H         73.76772       99.19043       57.42556
H         73.36046       98.79509       55.96558
O         74.07635       96.30198       58.80271
H         73.65558       95.44743       58.53205
H         74.70471       96.51321       58.06709
O         69.61752       98.73683       56.12668
H         68.94129       98.19561       56.60695
H         70.12402       98.07902       55.58680

Ca 1.0



