%chk=apoCaM-CA-Ng.loop3.water4.frame195.chk
%nprocshared=20
%mem=10GB
%nosave
#b3lyp/svp scf=(tight,noincore,xqc) Test 
#IOP(5/87=12) Density=Current Pop=(MK,readradii) iop(6/33=2) iop(6/42=6)

apoCaM-CA-Ng.loop3.water4.frame195 

   0  1 
C        -25.13903       21.89077       17.45151
C        -26.64158       21.87721       17.47933
O        -27.21886       22.53947       18.32585
H        -24.73887       21.50629       18.41231
H        -24.74080       21.26434       16.62509
H        -24.78127       22.93162       17.29975
N        -27.34340       21.14491       16.56898
C        -28.80092       21.11210       16.46518
C        -29.45546       20.54597       17.72228
O        -30.35425       21.16476       18.27719
C        -29.34902       22.50443       16.06937
C        -28.74408       22.97688       14.77516
O        -28.00011       24.09749       14.74374
O        -28.91889       22.34312       13.74685
H        -26.81613       20.58650       15.88014
H        -29.06165       20.40932       15.64259
H        -29.13034       23.24255       16.86901
H        -30.45217       22.45983       15.94476
N        -29.05653       19.33356       18.20843
C        -29.68639       18.65173       19.34967
C        -29.50483       19.36971       20.69300
O        -29.97968       18.86053       21.69931
C        -29.09520       17.23352       19.53392
C        -29.20055       16.32580       18.30056
C        -28.71334       14.91689       18.65701
C        -28.70607       13.99767       17.43275
N        -28.30163       12.64354       17.80855
H        -28.29070       18.86330       17.70594
H        -30.77320       18.54849       19.13626
H        -29.64686       16.73961       20.36506
H        -28.02336       17.31419       19.82567
H        -28.57490       16.72358       17.47532
H        -30.25596       16.27278       17.95622
H        -29.38495       14.49337       19.43620
H        -27.68040       14.96882       19.06753
H        -27.99404       14.40094       16.67787
H        -29.72098       13.96418       16.97908
H        -27.35354       12.65702       18.25046
H        -28.99566       12.23914       18.47888
H        -28.26947       12.04484       16.95248
N        -28.79514       20.52149       20.79492
C        -28.43024       21.17412       22.04685
C        -29.65476       21.48647       22.91986
O        -30.61452       22.05614       22.42153
C        -27.63127       22.43104       21.67596
C        -26.88601       22.99571       22.81846
O        -25.68393       23.19481       22.73693
O        -27.54522       23.37305       23.90772
H        -28.42679       20.93640       19.93468
H        -27.74877       20.48797       22.59739
H        -28.31962       23.19660       21.25321
H        -26.86944       22.18449       20.90418
N        -29.69797       21.07593       24.22539
C        -30.89471       21.12137       25.06225
C        -31.48298       22.48205       25.40663
O        -32.64215       22.48874       25.79679
H        -28.87209       20.59998       24.61718
H        -30.70780       20.58962       26.02137
H        -31.68030       20.54339       24.53000
N        -30.78666       23.65488       25.34295
C        -31.41624       24.96039       25.59261
C        -31.30554       25.87348       24.37663
O        -31.70901       27.02574       24.45943
C        -30.89028       25.62905       26.88367
C        -29.44952       26.05867       26.86740
N        -29.12281       27.36559       27.02027
O        -28.57022       25.22077       26.75943
H        -29.78894       23.62790       25.09278
H        -32.50483       24.83597       25.78066
H        -31.04273       24.93748       27.73964
H        -31.52318       26.52390       27.07698
H        -29.84941       28.08897       27.12457
H        -28.13922       27.66359       27.04892
N        -30.81773       25.40901       23.19275
C        -30.69632       26.20696       21.99352
C        -29.62544       27.24914       22.13369
O        -29.87240       28.40733       21.83109
H        -30.53485       24.42729       23.10210
H        -31.67621       26.64632       21.70537
H        -30.37142       25.53607       21.16727
N        -28.38120       26.88110       22.54528
C        -27.22631       27.76132       22.49624
C        -26.73047       28.20266       23.88214
O        -26.82767       27.35630       24.99299
C        -26.14808       27.11379       21.58671
C        -26.66045       27.07212       20.16133
C        -26.95718       28.28241       19.50604
C        -26.86796       25.86053       19.47911
C        -27.47858       28.28654       18.21534
C        -27.38880       25.87084       18.17606
C        -27.70448       27.08524       17.54746
O        -28.22873       27.11605       16.30667
H        -28.22708       25.90225       22.82958
H        -27.49769       28.73691       22.04855
H        -25.89470       26.09888       21.96786
H        -25.21387       27.71415       21.58032
H        -26.79668       29.23220       19.99827
H        -26.64173       24.91384       19.95407
H        -27.71574       29.22841       17.73753
H        -27.55665       24.94124       17.65407
H        -28.43493       26.31287       15.81268
N        -25.45935       28.93031       23.80402
C        -24.68881       28.95816       25.05594
C        -25.52025       29.56281       26.17311
O        -25.78641       28.88134       27.15015
C        -23.35377       29.72782       24.84645
C        -22.60497       29.28840       23.55874
C        -22.44837       29.60690       26.08523
C        -22.26156       27.80035       23.48013
H        -25.65496       29.89482       23.45083
H        -24.42783       27.90855       25.32436
H        -23.58048       30.80693       24.70335
H        -21.66949       29.88080       23.46465
H        -23.23219       29.53426       22.67412
H        -22.18076       28.54905       26.28679
H        -21.51682       30.19224       25.93482
H        -22.95697       30.00725       26.98509
H        -23.18569       27.18899       23.49236
H        -21.73797       27.59783       22.52224
H        -21.59723       27.49448       24.31257
N        -25.99016       30.83438       26.07050
C        -26.75247       31.49200       27.12183
C        -25.91260       31.61727       28.37422
O        -26.42391       31.34579       29.45220
C        -27.20933       32.87980       26.65712
O        -28.03217       32.74038       25.53023
H        -25.78252       31.36542       25.21211
H        -27.67577       30.90896       27.34644
H        -26.31805       33.49999       26.41005
H        -27.79098       33.36539       27.47249
H        -28.15039       33.65036       25.15449
N        -24.58976       31.96719       28.29730
C        -23.70748       32.11048       29.45168
C        -23.60817       30.84919       30.31580
O        -23.04983       30.93904       31.39830
C        -24.16650       33.31333       30.28854
H        -24.17912       32.14416       27.36760
H        -22.68179       32.35742       29.09685
H        -24.18792       34.22266       29.64978
H        -25.17549       33.15375       30.71917
H        -23.45227       33.49981       31.11868
N        -24.12633       29.64760       29.91484
C        -24.20709       28.47783       30.78137
C        -23.41529       27.30646       30.24456
O        -22.95484       27.33880       29.11318
C        -25.68017       28.07430       30.91330
H        -24.51117       29.55626       28.97478
H        -23.80587       28.71988       31.78761
H        -26.27123       28.92031       31.32223
H        -26.09540       27.81186       29.91417
H        -25.80024       27.19867       31.58414
N        -23.18700       26.23464       31.06526
C        -22.46893       25.02114       30.68420
C        -21.04549       25.29026       30.20076
O        -20.41620       24.36613       29.70275
C        -23.28147       24.19978       29.65693
C        -24.70993       23.93057       30.16459
C        -25.45407       23.00073       29.25691
O        -26.47331       23.37211       28.69962
O        -25.02247       21.73654       29.08760
H        -23.54750       26.27471       32.03012
H        -22.38909       24.36570       31.58107
H        -22.76384       23.22512       29.50823
H        -23.32252       24.71510       28.67679
H        -25.25919       24.89471       30.23679
H        -24.67973       23.46589       31.17342
N        -20.45441       26.51423       30.32907
C        -19.13326       26.79013       29.81277
H        -18.38990       26.10309       30.26734
H        -19.13324       26.66849       28.70845
H        -18.84850       27.83759       30.05058
H        -20.93654       27.28499       30.81027
Ca       -26.64765       25.16705       24.74627
O        -27.90045       22.07585       26.61762
H        -28.57355       22.15797       27.33905
H        -27.53798       21.16007       26.71781
O        -24.64363       22.06579       26.05749
H        -24.69596       21.21763       26.56462
H        -24.16183       21.82292       25.22792
O        -23.49335       24.79363       24.70657
H        -22.94326       24.00629       24.94473
H        -23.52553       24.78083       23.71702
O        -25.49666       25.84233       27.29153
H        -26.18075       26.23957       27.88543
H        -24.64794       26.25512       27.58135

Ca 1.0



