%chk=apoCaM-CA-Ng.loop2.water4.frame1236.chk
%nprocshared=20
%mem=10GB
%nosave
#b3lyp/svp scf=(tight,noincore,xqc) Test 
#IOP(5/87=12) Density=Current Pop=(MK,readradii) iop(6/33=2) iop(6/42=6)

apoCaM-CA-Ng.loop2.water4.frame1236 

   -2  1 
C         68.02723       40.56865       19.13904
C         67.52750       39.18228       18.80636
O         67.00729       39.03646       17.71002
H         68.78927       40.86478       18.38793
H         67.17769       41.28056       19.07789
H         68.48367       40.70078       20.13118
N         67.61707       38.09383       19.63034
C         68.20705       38.04863       20.96605
C         67.13792       37.66681       21.98320
O         65.96644       37.64867       21.62704
C         69.43748       37.11755       20.94082
C         69.10697       35.66385       20.85065
O         69.24699       35.05305       19.80338
O         68.89610       34.99003       21.99362
H         67.23324       37.20357       19.27247
H         68.60682       39.02323       21.28065
H         70.04483       37.25328       21.86098
H         70.09365       37.41607       20.09420
N         67.46269       37.35532       23.27327
C         66.48386       37.07727       24.32286
C         65.54478       35.89587       24.04615
O         64.65537       35.69784       24.86330
C         65.67453       38.35586       24.60819
H         68.45560       37.34877       23.54769
H         67.03371       36.84598       25.26220
H         64.99689       38.20439       25.47560
H         66.36571       39.18824       24.86280
H         65.05943       38.66042       23.73697
N         65.64964       35.07639       22.95019
C         64.64714       34.05599       22.62997
C         65.19290       32.61490       22.63766
O         66.30862       32.43199       23.44934
C         64.01717       34.39594       21.25868
C         64.90762       34.38129       20.01340
O         64.41165       34.77925       18.97170
O         66.19520       33.94591       19.96934
H         66.42488       35.20519       22.29248
H         63.83749       34.08372       23.39091
H         63.60473       35.42460       21.35431
H         63.15764       33.72175       21.06208
N         64.15423       31.60360       22.86452
C         64.63069       30.21498       22.76366
C         65.19871       29.83918       21.40924
O         65.40575       30.69576       20.56105
H         63.38722       31.73179       22.16636
H         63.75977       29.55593       22.96303
H         65.38989       30.00323       23.54845
N         65.47342       28.52909       21.15017
C         66.11035       28.06818       19.91798
C         65.32434       28.45659       18.67613
O         64.14606       28.77401       18.76474
C         66.25319       26.52304       19.92210
C         67.05906       25.94686       21.06400
N         67.16104       24.60381       21.19785
O         67.61266       26.67532       21.87342
H         65.24298       27.83825       21.88109
H         67.11302       28.54701       19.85760
H         66.72211       26.18213       18.97355
H         65.23021       26.08709       19.97727
H         66.69216       23.97183       20.53181
H         67.69815       24.19250       21.97565
N         65.94899       28.43572       17.46576
C         65.28881       28.69259       16.19747
C         65.85858       29.90923       15.49300
O         66.64752       30.62601       16.08901
H         66.95407       28.20285       17.43246
H         64.19328       28.83283       16.31532
H         65.46605       27.79434       15.56829
N         65.55505       30.20887       14.19526
C         64.70762       29.37901       13.34374
C         65.54296       28.55146       12.37901
O         64.96320       27.69402       11.72614
C         63.66790       30.22774       12.56613
C         62.68651       30.96486       13.48705
O         64.30067       31.12129       11.67969
H         66.03019       31.02017       13.76952
H         64.14727       28.64571       13.95677
H         63.05044       29.53806       11.94931
H         64.62198       31.90488       12.19684
H         62.13923       30.23707       14.12224
H         63.21826       31.68832       14.13987
H         61.94646       31.51938       12.87013
N         66.88864       28.75043       12.21013
C         67.69832       27.97340       11.27311
C         68.95735       27.42974       11.95819
O         69.53579       28.15496       12.75589
C         68.03922       28.80036       10.00261
C         68.88758       30.06050       10.31089
C         66.73093       29.15482        9.26550
C         69.31816       30.81942        9.05542
H         67.35792       29.51358       12.71607
H         67.08795       27.12720       10.92073
H         68.62930       28.13709        9.33064
H         69.81903       29.75485       10.83012
H         68.32652       30.75441       10.97265
H         66.93023       29.62629        8.28422
H         66.14439       28.23311        9.06061
H         66.10655       29.84314        9.87334
H         69.89141       30.14951        8.37969
H         68.44453       31.23423        8.51377
H         69.96592       31.67241        9.34595
N         69.46021       26.17261       11.74933
C         68.93385       25.19494       10.79996
C         70.00843       24.63194        9.88184
O         71.18973       24.72339       10.17993
C         68.19314       24.08336       11.56690
C         69.05014       23.41204       12.60907
O         68.71060       23.49578       13.91037
O         70.05199       22.79390       12.28753
H         70.27021       25.88550       12.32236
H         68.21219       25.66152       10.11220
H         67.79791       23.32258       10.86086
H         67.32609       24.55152       12.08320
N         69.62934       24.05057        8.70684
C         70.53634       23.43193        7.74717
C         70.52444       24.23017        6.44980
O         69.43683       24.52326        5.97113
C         70.02710       22.00626        7.43597
C         70.97947       21.27905        6.51806
C         70.66403       21.07885        5.16241
C         72.20882       20.81484        7.01346
C         71.57533       20.43879        4.31587
C         73.11183       20.16738        6.16650
C         72.79768       19.98331        4.81774
H         68.62510       24.05536        8.46831
H         71.56156       23.36910        8.16537
H         69.02433       22.09423        6.95884
H         69.89263       21.40924        8.36322
H         69.72648       21.43694        4.75524
H         72.46687       20.96002        8.05512
H         71.33689       20.30025        3.26916
H         74.05770       19.81441        6.55574
H         73.50247       19.48928        4.16174
N         71.66290       24.57151        5.76678
C         73.02798       24.18811        6.10523
C         73.70872       25.22235        6.99098
O         74.92430       25.16827        7.11431
C         73.68613       24.16733        4.71437
C         73.06302       25.38405        4.05723
C         71.60427       25.22133        4.46629
H         73.13497       23.17801        6.53612
H         74.79687       24.14322        4.71101
H         73.32297       23.26721        4.16425
H         73.48130       26.28766        4.55552
H         73.22412       25.48258        2.96268
H         71.08906       26.20619        4.49019
H         71.08196       24.53609        3.76238
N         73.00081       26.22665        7.58323
C         73.62480       27.40048        8.18105
C         73.15124       28.62991        7.40916
O         72.16013       28.53423        6.69710
C         73.24299       27.52329        9.67448
C         73.89788       26.47294       10.59081
C         75.36712       26.73088       10.81286
O         76.16347       26.66835        9.89101
O         75.81258       27.02669       12.04983
H         71.97255       26.21841        7.53631
H         74.72002       27.33900        8.05081
H         72.13635       27.42964        9.74835
H         73.51323       28.52420       10.07464
H         73.74102       25.44487       10.20212
H         73.40065       26.54280       11.58318
N         73.80524       29.82630        7.43430
C         75.03596       30.10345        8.14632
H         75.82098       30.37366        7.40804
H         74.87749       30.95936        8.83171
H         75.40989       29.25255        8.74277
H         73.42100       30.59667        6.86551
Ca        67.37959       32.86591       21.56337
O         70.42505       32.54667       22.62435
H         70.57897       33.06634       23.45255
H         71.32911       32.26629       22.33491
O         68.68292       30.00652       22.13019
H         68.08102       29.22281       22.15994
H         69.26120       29.90088       22.92655
O         70.55202       31.37422       19.80447
H         71.04484       30.64441       20.25650
H         71.13705       31.64359       19.05261
O         68.06162       31.77131       18.33634
H         68.65786       31.19829       17.79102
H         67.35676       31.15614       18.65991

Ca 1.0



