%chk=apoCaM-CA-Ng.loop4.water6.frame911.chk
%nprocshared=20
%mem=10GB
%nosave
#b3lyp/svp scf=(tight,noincore,xqc) Test 
#IOP(5/87=12) Density=Current Pop=(MK,readradii) iop(6/33=2) iop(6/42=6)

apoCaM-CA-Ng.loop4.water6.frame911 

   -3  1 
C         97.79437       -0.28612       48.80187
C         97.89520       -1.29169       49.91175
O         98.23158       -2.43527       49.64215
H         97.47505        0.70771       49.18187
H         98.78411       -0.17280       48.31213
H         97.05177       -0.63107       48.05270
N         97.63039       -0.92461       51.19803
C         97.70689       -1.81658       52.35077
C         99.10781       -2.39750       52.48290
O         99.25039       -3.60723       52.59536
C         96.62701       -2.92538       52.26629
C         95.24432       -2.35854       52.10656
O         94.57883       -2.63590       51.12091
O         94.72856       -1.55027       53.05149
H         97.37122        0.05621       51.38602
H         97.50620       -1.20794       53.26087
H         96.65144       -3.54250       53.19032
H         96.84179       -3.59635       51.40590
N        100.20373       -1.58796       52.40981
C        101.56130       -2.13354       52.40499
C        101.97902       -2.60305       53.80038
O        101.45426       -2.07527       54.77104
C        102.60459       -1.12024       51.82400
C        102.77115        0.15299       52.69377
C        102.25655       -0.78390       50.35992
C        103.98281        0.99452       52.28249
H        100.05385       -0.58197       52.24623
H        101.55332       -3.00367       51.71335
H        103.59181       -1.61817       51.81062
H        102.95410       -0.14369       53.74733
H        101.85406        0.77753       52.66402
H        103.04503       -0.16553       49.88769
H        102.17946       -1.71801       49.76320
H        101.29187       -0.23968       50.28765
H        104.08536        1.85848       52.97157
H        104.90944        0.38341       52.35137
H        103.88244        1.38882       51.25243
N        102.96266       -3.53398       54.01231
C        103.56217       -4.34503       52.95395
C        102.60241       -5.41752       52.45615
O        102.88123       -6.00907       51.42223
C        104.93842       -4.90942       53.36344
C        104.94055       -5.86476       54.52718
O        106.00216       -6.32700       54.91307
O        103.80149       -6.21973       55.15206
H        103.25026       -3.71062       54.98701
H        103.78783       -3.69229       52.09423
H        105.59527       -4.04836       53.61857
H        105.38639       -5.42728       52.48696
N        101.42747       -5.68466       53.10249
C        100.39672       -6.53305       52.53790
C        100.78652       -7.97605       52.35132
O        101.84584       -8.41158       52.78131
H        101.19891       -5.20797       53.98616
H        100.11907       -6.11121       51.54814
H         99.49226       -6.50690       53.18500
N         99.91991       -8.77390       51.67009
C        100.11927      -10.19310       51.39389
C        101.37015      -10.52398       50.57241
O        101.62864      -11.70890       50.41013
C         98.83234      -10.78274       50.74831
C         98.32818      -10.03332       49.53570
O         98.99184       -9.95639       48.51931
O         97.11859       -9.44115       49.57314
H         99.04259       -8.33318       51.35268
H        100.25362      -10.71388       52.36782
H         98.02636      -10.73118       51.51225
H         98.97908      -11.85444       50.49421
N        102.21806       -9.57978       50.05786
C        103.45407       -9.93133       49.36152
C        103.24345      -10.61144       48.02015
O        104.22579      -10.98081       47.39389
H        102.02469       -8.57898       50.19064
H        104.06297      -10.58563       50.02256
H        104.03894       -9.00592       49.16757
N        101.99714      -10.77474       47.49986
C        101.67737      -11.35368       46.20593
C        102.27800      -10.51585       45.09443
O        102.89626      -11.04943       44.18390
C        102.03793      -12.85498       46.13465
C        101.36318      -13.64861       47.26626
C        101.65278      -15.12246       47.15258
N        102.31172      -15.77842       48.13682
O        101.27811      -15.73511       46.16380
H        101.19804      -10.42669       48.02797
H        100.57312      -11.27727       46.07985
H        103.13851      -12.99392       46.19870
H        101.69210      -13.25275       45.15488
H        100.26209      -13.50131       47.23019
H        101.73065      -13.26997       48.24313
H        102.63632      -15.28352       48.98036
H        102.50015      -16.78862       48.05530
N        102.12060       -9.16121       45.13139
C        102.58594       -8.25606       44.08665
C        101.44970       -7.38983       43.54635
O        101.71321       -6.64758       42.60805
C        103.76258       -7.37120       44.59513
C        103.39077       -6.51649       45.81723
C        104.99768       -8.22513       44.91161
H        101.65646       -8.75024       45.95441
H        102.96803       -8.84007       43.21999
H        104.05552       -6.68080       43.77242
H        103.13744       -7.15101       46.69260
H        104.24564       -5.86669       46.10128
H        102.53166       -5.85931       45.58119
H        104.79095       -8.93634       45.73680
H        105.30712       -8.79775       44.01109
H        105.84713       -7.57339       45.20930
N        100.17329       -7.42379       44.04709
C         99.09893       -6.58920       43.50596
C         97.72337       -6.92988       44.07978
O         97.60776       -7.72037       45.00836
C         99.38063       -5.07856       43.74639
C         99.31631       -4.70470       45.21162
N         98.39695       -3.81454       45.65555
O        100.09469       -5.21148       46.00421
H         99.94694       -8.08078       44.80474
H         99.05094       -6.78834       42.41203
H         98.63108       -4.48139       43.18622
H        100.36890       -4.78107       43.34427
H         97.72573       -3.37702       45.00755
H         98.35109       -3.56337       46.65428
N         96.62194       -6.33694       43.54445
C         95.26201       -6.51981       44.04101
C         94.28394       -5.83261       43.10820
O         94.50593       -4.67869       42.76205
C         95.08114       -5.92397       45.45974
C         93.63377       -6.06895       45.88967
C         93.06335       -7.34460       46.04701
C         92.82811       -4.93195       46.07558
C         91.70890       -7.48016       46.36240
C         91.47368       -5.07198       46.39413
C         90.90759       -6.34269       46.53000
O         89.59455       -6.45801       46.81333
H         96.76648       -5.72649       42.72427
H         95.02693       -7.60633       44.06980
H         95.36642       -4.84854       45.42940
H         95.73887       -6.42601       46.19938
H         93.66205       -8.23526       45.90569
H         93.23949       -3.93802       45.95056
H         91.28157       -8.46959       46.46448
H         90.85753       -4.19308       46.52261
H         89.15938       -7.31875       46.89403
N         93.13263       -6.45936       42.73180
C         92.16150       -5.84282       41.84355
C         90.88277       -5.52084       42.60245
O         90.19903       -6.45908       42.99010
C         91.83932       -6.79734       40.67645
C         93.07775       -7.16999       39.85441
C         92.71269       -8.15548       38.78167
O         92.88001       -7.87657       37.60573
O         92.20638       -9.35924       39.11504
H         92.92326       -7.39663       43.11018
H         92.58800       -4.92739       41.41757
H         91.08730       -6.32162       40.00855
H         91.39648       -7.73115       41.09240
H         93.84579       -7.64064       40.50496
H         93.50852       -6.24963       39.40361
N         90.45496       -4.25056       42.88418
C         91.20775       -3.01357       42.66143
C         91.47000       -2.72860       41.19692
O         90.53357       -2.68352       40.41132
C         90.48451       -1.78162       43.25490
C         90.27489       -1.88729       44.77186
C         89.80350       -0.58528       45.34254
O         90.60621        0.49392       45.27483
O         88.72510       -0.50927       45.90835
H         89.54808       -4.17608       43.36908
H         92.17619       -3.09488       43.20346
H         89.50475       -1.61401       42.75373
H         91.13180       -0.89698       43.05655
H         91.23661       -2.13267       45.26921
H         89.53860       -2.68508       45.00260
N         92.74523       -2.47534       40.78193
C         93.10481       -2.15502       39.41784
H         93.84859       -2.89419       39.05388
H         92.22971       -2.16336       38.73646
H         93.56462       -1.14412       39.39186
H         93.51097       -2.48861       41.47254
Ca        90.10446        2.41019       46.35070
O         90.01944        5.41652       46.14261
H         90.65911        6.13591       46.37352
H         89.73941        5.61874       45.21467
O         89.57674        3.64947       49.05344
H         89.78620        4.58828       49.28741
H         88.93943        3.35377       49.75089
O         89.44260        0.38596       48.75734
H         89.06363       -0.50753       48.56237
H         88.97760        0.67601       49.58156
O         91.30613        3.15439       43.68904
H         91.58890        3.86347       43.05906
H         91.04603        2.39406       43.11039
O         92.70947        0.44440       47.44972
H         92.61239        0.33935       48.42940
H         93.30335        1.22924       47.34092
O         87.21571        2.85300       45.76367
H         87.09550        2.91215       46.74482
H         87.33564        1.88612       45.58714

Ca 1.0



