%chk=apoCaM-CA-Ng.loop2.water4.frame531.chk
%nprocshared=20
%mem=10GB
%nosave
#b3lyp/svp scf=(tight,noincore,xqc) Test 
#IOP(5/87=12) Density=Current Pop=(MK,readradii) iop(6/33=2) iop(6/42=6)

apoCaM-CA-Ng.loop2.water4.frame531 

   -2  1 
C         70.53452        5.98891       29.68027
C         70.81092        4.52666       29.49104
O         70.31499        3.94772       28.53608
H         69.54706        6.09210       30.18155
H         71.30346        6.47377       30.31891
H         70.48715        6.50217       28.69900
N         71.51549        3.83904       30.42887
C         71.64041        2.38526       30.41655
C         72.36262        1.86184       29.17772
O         73.53408        2.14230       29.00751
C         72.34487        1.93458       31.70553
C         72.33694        0.44462       31.85668
O         73.49346       -0.22229       32.02373
O         71.28003       -0.16641       31.84849
H         71.88517        4.36551       31.23794
H         70.60507        1.97834       30.43923
H         71.79953        2.37155       32.57009
H         73.38944        2.32102       31.72393
N         71.71413        1.04743       28.29578
C         72.29254        0.52299       27.05111
C         72.44755        1.60753       25.99811
O         71.66127        2.54282       26.03337
C         71.33212       -0.53880       26.49088
H         70.75012        0.77210       28.53717
H         73.27011        0.05163       27.25466
H         71.67046       -0.93823       25.51525
H         71.24553       -1.38135       27.20924
H         70.31833       -0.10078       26.34902
N         73.30621        1.52032       24.93144
C         74.27404        0.44897       24.66867
C         75.46841        0.47330       25.61385
O         76.00840        1.53219       25.90159
C         74.70341        0.43318       23.18309
C         75.29998        1.70232       22.63633
O         75.54970        1.75603       21.44018
O         75.56512        2.77131       23.42983
H         73.22126        2.26371       24.21984
H         73.76930       -0.53129       24.78237
H         73.79350        0.20883       22.58271
H         75.42056       -0.40171       23.00993
N         75.90640       -0.70350       26.14930
C         76.94530       -0.83466       27.15525
C         76.33120       -0.92864       28.53355
O         75.12121       -0.80938       28.66182
H         75.43782       -1.57560       25.86841
H         77.64566        0.03043       27.15372
H         77.51643       -1.76298       26.94064
N         77.08630       -1.11893       29.64770
C         78.50902       -1.44609       29.64015
C         79.33012       -0.36809       30.34486
O         80.39950       -0.67774       30.85352
C         78.65162       -2.79928       30.37025
C         77.80467       -3.88221       29.74049
N         76.74191       -4.39733       30.40553
O         78.07352       -4.28915       28.62022
H         76.60790       -1.09449       30.56467
H         78.91981       -1.57789       28.62086
H         78.32865       -2.65689       31.42527
H         79.71166       -3.12864       30.37133
H         76.48129       -4.04653       31.33923
H         76.15953       -5.13313       29.97892
N         78.88911        0.92228       30.42527
C         79.47429        1.90733       31.32972
C         80.44015        2.88228       30.70333
O         80.90645        3.76584       31.41000
H         78.00551        1.17736       29.96064
H         79.98152        1.40127       32.17730
H         78.63739        2.50513       31.74568
N         80.78397        2.80417       29.39524
C         81.67512        3.75806       28.74492
C         80.88431        4.95034       28.23456
O         79.67528        4.99816       28.41492
C         82.47048        3.02898       27.63278
C         83.45716        2.03002       28.24849
O         81.60300        2.33544       26.77144
H         80.35388        2.06764       28.82040
H         82.40951        4.17745       29.47086
H         83.08473        3.75284       27.05142
H         81.33914        2.96445       26.05487
H         84.18669        2.57132       28.88878
H         82.93644        1.27114       28.87090
H         84.01728        1.50105       27.44911
N         81.52550        5.97933       27.61288
C         80.84503        7.15319       27.08544
C         81.01278        7.21288       25.56838
O         82.12349        7.14567       25.06481
C         81.36289        8.45597       27.76423
C         80.78398        9.69723       27.02051
C         81.01701        8.44469       29.27141
C         81.07964       11.02894       27.69244
H         82.54952        5.93501       27.50436
H         79.75590        7.11663       27.31541
H         82.47066        8.51044       27.67837
H         79.68296        9.61563       26.89126
H         81.24788        9.73069       26.00875
H         81.47402        7.56060       29.76340
H         81.43186        9.33919       29.78353
H         79.91968        8.41782       29.44415
H         80.45642       11.11583       28.60605
H         82.15675       11.10665       27.94532
H         80.80879       11.86290       27.01040
N         79.91607        7.46506       24.80421
C         79.89864        7.72712       23.37324
C         79.50359        9.18741       23.04711
O         79.83079        9.63532       21.95737
C         78.87437        6.80346       22.69629
C         79.12600        5.33663       22.88375
O         80.16967        4.82945       22.51240
O         78.16245        4.55671       23.39275
H         79.03523        7.51353       25.28877
H         80.90051        7.53504       22.94352
H         78.85014        7.00422       21.60537
H         77.89038        7.05045       23.13474
N         78.72341        9.94724       23.88177
C         78.19148       11.27420       23.56149
C         76.87780       11.50088       24.33371
O         76.79590       12.43878       25.11440
C         79.28377       12.34554       23.81021
C         78.99721       13.73261       23.26232
C         78.74241       13.91595       21.88960
C         79.07186       14.86564       24.09448
C         78.57472       15.19921       21.36005
C         78.93201       16.15182       23.55404
C         78.68442       16.31799       22.18815
H         78.41337        9.54081       24.75687
H         77.92488       11.31328       22.48550
H         80.20502       12.02377       23.28257
H         79.52197       12.38054       24.89580
H         78.69351       13.06928       21.21943
H         79.27293       14.75873       25.15273
H         78.38239       15.32453       20.30156
H         79.03150       17.02211       24.19098
H         78.58576       17.31230       21.76857
N         75.78347       10.68294       24.14001
C         74.43964       10.95367       24.67507
C         74.26521       10.77586       26.18899
O         73.21826       11.10089       26.73162
C         73.53853        9.97100       23.90661
C         74.33126        9.70342       22.63614
C         75.74190        9.60638       23.17471
H         74.19479       11.99294       24.37844
H         73.48427        8.99781       24.44946
H         72.51563       10.35631       23.71729
H         74.00805        8.80398       22.06979
H         74.26808       10.60169       21.98396
H         75.86362        8.64557       23.72060
H         76.49594        9.65974       22.36503
N         75.26763       10.22044       26.90778
C         75.34076       10.03585       28.34140
C         75.56186       11.41613       28.94266
O         74.87365       11.79528       29.87959
C         76.52308        9.07734       28.73061
C         76.49300        7.59110       28.19724
C         76.83785        7.30994       26.74835
O         77.05937        6.04512       26.29389
O         77.12600        8.22674       26.02870
H         76.09382       10.00938       26.38942
H         74.41370        9.55929       28.73522
H         76.46972        8.99283       29.84119
H         77.50712        9.54475       28.50375
H         75.50024        7.14919       28.40791
H         77.27316        7.04203       28.76546
N         76.50690       12.23964       28.39795
C         76.74198       13.59301       28.84909
H         77.60366       14.02665       28.29365
H         75.84944       14.22553       28.65096
H         76.97879       13.59762       29.93124
H         77.07147       11.90439       27.60368
Ca        75.99640        4.57236       24.83300
O         78.57757        3.19324       25.87867
H         79.27032        3.44139       25.21993
H         78.91201        3.57898       26.71987
O         75.51143        4.04256       27.55375
H         75.96312        4.12708       28.42789
H         74.62972        3.65736       27.75706
O         75.43016        5.98941       22.78037
H         74.87038        5.65259       22.04417
H         75.99592        6.67248       22.35875
O         73.55141        5.14271       25.68936
H         73.01493        4.47604       26.17781
H         72.95959        5.92445       25.58223

Ca 1.0



