%chk=apoCaM-CA-Ng.loop2.water2.frame903.chk
%nprocshared=20
%mem=10GB
%nosave
#b3lyp/svp scf=(tight,noincore,xqc) Test 
#IOP(5/87=12) Density=Current Pop=(MK,readradii) iop(6/33=2) iop(6/42=6)

apoCaM-CA-Ng.loop2.water2.frame903 

   -2  1 
C         92.12263       14.72896       43.01167
C         91.18929       14.66542       44.18330
O         91.19916       15.57607       44.99973
H         92.83729       13.88169       43.06855
H         91.55058       14.66484       42.06271
H         92.69787       15.68013       43.01825
N         90.32837       13.61627       44.31576
C         89.41940       13.46584       45.44454
C         88.00161       13.80632       45.01801
O         87.10254       12.98390       45.12760
C         89.57624       12.04873       46.04107
C         88.70219       11.83326       47.24825
O         87.86226       10.94695       47.24718
O         88.84137       12.61570       48.33531
H         90.30506       12.90055       43.57246
H         89.67271       14.19537       46.24561
H         90.63295       11.89761       46.35004
H         89.33219       11.29171       45.26256
N         87.73550       15.06591       44.57115
C         86.39360       15.57425       44.30964
C         86.24163       15.96968       42.84553
O         87.22584       15.89775       42.12181
C         86.19474       16.77515       45.25120
H         88.52157       15.72701       44.46877
H         85.63613       14.79310       44.53289
H         85.20056       17.24366       45.18466
H         86.32931       16.44369       46.30297
H         86.95133       17.56009       45.03334
N         85.06420       16.38995       42.28796
C         83.77004       16.48773       42.95926
C         82.74079       15.63274       42.24258
O         82.61987       15.73032       41.03149
C         83.30435       17.95865       43.06265
C         83.03973       18.64686       41.75243
O         81.80725       19.11706       41.48588
O         83.93839       18.82381       40.94683
H         85.09077       16.64919       41.28972
H         83.83029       16.12210       43.99985
H         84.06423       18.54832       43.61773
H         82.36604       17.97592       43.66069
N         81.94069       14.78634       42.94699
C         80.93511       13.92387       42.34931
C         79.57226       14.27993       42.89094
O         79.09955       13.56460       43.76275
H         82.03860       14.74764       43.97385
H         81.18612       12.88467       42.65569
H         80.93196       13.94073       41.24186
N         78.85913       15.37003       42.48131
C         79.20557       16.25142       41.36583
C         79.02801       15.49396       40.04858
O         77.97040       14.90908       39.85665
C         78.26799       17.48373       41.39798
C         78.62580       18.58451       40.42924
N         77.86565       19.70219       40.38256
O         79.60256       18.48951       39.70380
H         77.97727       15.56118       42.98525
H         80.23640       16.63754       41.50117
H         78.31779       17.93591       42.41259
H         77.22071       17.16013       41.21181
H         77.04526       19.80476       40.99618
H         78.09129       20.46954       39.73606
N         80.00173       15.47514       39.09040
C         79.89974       14.70540       37.85146
C         79.78526       15.55722       36.59547
O         79.74337       14.98269       35.51718
H         80.85781       16.02446       39.24187
H         79.00899       14.04112       37.86434
H         80.79550       14.05236       37.77742
N         79.66852       16.91333       36.64993
C         79.44515       17.77572       35.49031
C         80.50481       18.85034       35.42283
O         80.68830       19.55045       36.39969
C         78.05365       18.45008       35.59775
C         76.92967       17.45649       35.31804
O         77.85498       19.00813       36.87364
H         79.68406       17.36983       37.56799
H         79.46793       17.20543       34.53556
H         77.95885       19.23657       34.81029
H         78.21394       19.93042       36.85372
H         76.94559       16.62041       36.04697
H         75.95053       17.97721       35.38270
H         77.03713       17.04890       34.28939
N         81.20260       19.08781       34.27668
C         82.16696       20.18374       34.16152
C         81.43343       21.50119       34.43450
O         80.46036       21.80324       33.75852
C         82.89355       20.15487       32.77810
C         83.89294       21.33894       32.66032
C         83.63948       18.80886       32.60771
C         84.64207       21.40116       31.32539
H         81.00345       18.49742       33.45642
H         82.95727       20.04009       34.93326
H         82.13433       20.24687       31.96984
H         84.64027       21.28987       33.48309
H         83.33138       22.28999       32.75280
H         84.10741       18.72839       31.60730
H         84.42565       18.69873       33.38542
H         82.95891       17.93889       32.68209
H         83.92431       21.45905       30.48027
H         85.28826       22.30406       31.30776
H         85.30722       20.52477       31.18762
N         81.84120       22.30051       35.46153
C         81.14384       23.49441       35.93773
C         81.96499       24.76390       35.71455
O         81.57902       25.79703       36.24831
C         80.85779       23.32248       37.45324
C         79.80037       22.29882       37.76436
O         78.65141       22.50274       37.40612
O         80.07212       21.19138       38.48790
H         82.69578       22.03325       35.96811
H         80.17657       23.65500       35.41143
H         80.47391       24.27406       37.88119
H         81.80017       23.08012       37.98296
N         83.04620       24.80004       34.88167
C         83.82113       26.01147       34.62417
C         85.31481       25.69938       34.70080
O         85.74050       24.81908       33.96151
C         83.50124       26.54950       33.20932
C         84.31939       27.78753       32.89094
C         85.30296       27.74129       31.88763
C         84.13039       28.98582       33.60513
C         86.09278       28.86280       31.61711
C         84.92215       30.10665       33.32963
C         85.90512       30.04349       32.33912
H         83.29732       23.95416       34.35243
H         83.52430       26.80266       35.33538
H         82.41981       26.79364       33.12027
H         83.72164       25.74738       32.47119
H         85.47155       26.83176       31.32564
H         83.37769       29.05196       34.38056
H         86.85570       28.81372       30.85108
H         84.77897       31.02325       33.88794
H         86.52222       30.90848       32.13118
N         86.20342       26.39930       35.47889
C         87.65148       26.25850       35.33641
C         88.25483       24.92756       35.75339
O         89.46167       24.77859       35.62178
C         88.21705       27.37629       36.21971
C         87.12943       28.42525       36.12877
C         85.88664       27.56218       36.28906
H         87.89100       26.46442       34.26821
H         88.23720       27.03562       37.28179
H         89.23632       27.71359       35.93593
H         87.21285       29.25010       36.86729
H         87.13667       28.85358       35.09984
H         85.78286       27.23645       37.34830
H         85.00171       28.14399       35.98425
N         87.50629       23.93813       36.31480
C         88.09687       22.70965       36.84804
C         88.70451       21.79680       35.79143
O         89.30740       20.80202       36.17225
C         87.04405       21.96566       37.68377
C         85.92727       21.34857       36.82970
C         84.72320       21.15331       37.68046
O         84.14657       22.13819       38.11071
O         84.23271       19.94098       37.96737
H         86.50130       24.10740       36.46264
H         88.90020       23.01682       37.55387
H         86.63062       22.72173       38.38958
H         87.49666       21.15833       38.30050
H         86.28320       20.39834       36.37451
H         85.61020       22.02250       36.00391
N         88.58483       22.04470       34.45610
C         89.17137       21.17119       33.46368
H         90.27282       21.12750       33.60250
H         88.74440       20.14996       33.55649
H         88.95637       21.55659       32.44455
H         88.06134       22.86396       34.11830
Ca        82.08535       20.17522       38.53941
O         82.76992       22.24117       40.76383
H         83.31043       23.02666       40.49703
H         83.26080       21.85157       41.53008
O         82.88562       17.14813       37.93683
H         83.12506       17.12035       38.89641
H         83.67214       16.76225       37.47692

Ca 1.0



