%chk=apoCaM-CA-Ng.loop4.water4.frame954.chk
%nprocshared=20
%mem=10GB
%nosave
#b3lyp/svp scf=(tight,noincore,xqc) Test 
#IOP(5/87=12) Density=Current Pop=(MK,readradii) iop(6/33=2) iop(6/42=6)

apoCaM-CA-Ng.loop4.water4.frame954 

   -3  1 
C         75.08355      110.78745       57.37261
C         74.51436      112.15546       57.57932
O         74.71363      113.02042       56.73833
H         75.77581      110.54707       58.20636
H         74.26018      110.04298       57.35192
H         75.64049      110.73577       56.41332
N         73.77326      112.41671       58.69205
C         73.17524      113.71163       58.98894
C         72.21512      114.09484       57.87459
O         72.39182      115.12853       57.24322
C         74.26390      114.78502       59.22994
C         75.28290      114.33009       60.23785
O         76.45806      114.24179       59.91876
O         74.90704      114.00353       61.48846
H         73.61379      111.65319       59.36806
H         72.59377      113.61639       59.93500
H         73.78315      115.71920       59.59483
H         74.78752      115.02074       58.27997
N         71.16682      113.27608       57.57737
C         70.21897      113.53718       56.49917
C         68.89249      113.87536       57.15950
O         68.36559      113.00861       57.84402
C         70.11401      112.28223       55.56737
C         71.50264      111.93282       54.96847
C         69.06964      112.48289       54.45135
C         71.51271      110.68523       54.08124
H         71.02015      112.43517       58.15859
H         70.57157      114.38990       55.89223
H         69.77511      111.42280       56.18828
H         72.21896      111.74871       55.79608
H         71.87592      112.78716       54.37075
H         69.40530      113.25020       53.72691
H         68.90390      111.54104       53.89123
H         68.08422      112.76951       54.87327
H         70.89168      110.82879       53.17346
H         72.55037      110.48604       53.73913
H         71.14743      109.80300       54.64717
N         68.29241      115.10420       57.09617
C         68.76024      116.26900       56.33506
C         68.10669      117.55597       56.84350
O         67.03250      117.50661       57.42718
C         68.48047      116.03539       54.82915
C         68.58178      117.25156       53.96335
O         67.66546      118.22455       54.10419
O         69.41704      117.32600       53.07739
H         67.44069      115.20831       57.66826
H         69.84522      116.41714       56.52941
H         67.44407      115.65603       54.69993
H         69.17589      115.27356       54.45062
N         68.75955      118.75370       56.70521
C         68.24223      120.00052       57.25325
C         68.13875      121.15259       56.27072
O         67.64993      122.18802       56.70100
H         69.68967      118.76697       56.25853
H         68.92190      120.33071       58.06849
H         67.23842      119.84823       57.70095
N         68.61319      121.10556       54.98722
C         68.59978      122.27901       54.10902
C         67.92387      122.07229       52.75814
O         67.56042      123.07617       52.16019
C         70.03258      122.83603       53.94823
C         71.07080      121.79170       53.61015
O         71.00140      121.13272       52.58864
O         72.09148      121.57300       54.46065
H         69.08246      120.25446       54.65319
H         68.00990      123.09709       54.57902
H         70.33028      123.27606       54.92426
H         70.04306      123.65676       53.19705
N         67.74128      120.85111       52.17870
C         67.11872      120.69553       50.86824
C         67.93582      121.29984       49.73386
O         67.46201      121.28868       48.60719
H         68.05777      120.00615       52.65842
H         66.10778      121.15601       50.89667
H         66.99323      119.61277       50.64429
N         69.18927      121.80018       49.94631
C         70.07120      122.35434       48.93093
C         70.48509      121.32681       47.88664
O         71.07228      121.70768       46.88446
C         69.54091      123.69316       48.37189
C         69.28465      124.67880       49.53288
C         69.14255      126.10689       49.07800
N         68.16630      126.48141       48.22243
O         69.92565      126.94522       49.50099
H         69.58280      121.77453       50.88493
H         71.02926      122.62758       49.42866
H         68.62031      123.56452       47.76332
H         70.33723      124.11382       47.71894
H         70.14430      124.64239       50.23948
H         68.37443      124.36940       50.08725
H         67.49320      125.79564       47.85406
H         68.08831      127.46668       47.92815
N         70.31678      119.99058       48.12144
C         70.79808      118.93519       47.23646
C         71.83503      118.04230       47.92734
O         72.36966      117.17034       47.25323
C         69.59867      118.07882       46.72807
C         68.81936      117.39951       47.87393
C         68.63813      118.92680       45.88294
H         69.85496      119.69258       48.98811
H         71.30644      119.37913       46.35244
H         69.99761      117.27683       46.06794
H         68.33602      118.14408       48.54056
H         68.01521      116.75532       47.46029
H         69.48977      116.75792       48.48273
H         69.17741      119.36759       45.01822
H         67.81260      118.29511       45.49034
H         68.19538      119.74791       46.48449
N         72.12793      118.14481       49.26152
C         72.97620      117.19125       49.97129
C         73.92001      117.88236       50.95568
O         73.68936      119.02326       51.33509
C         72.02053      116.24580       50.73463
C         72.69873      115.25070       51.63900
N         72.48582      115.29414       52.97583
O         73.44460      114.40526       51.16823
H         71.63028      118.83361       49.84118
H         73.58414      116.59552       49.25327
H         71.39026      115.69375       50.00343
H         71.34330      116.87783       51.34652
H         71.86091      116.00107       53.39146
H         72.95968      114.63187       53.60432
N         74.99713      117.19983       51.44133
C         75.86412      117.67203       52.51903
C         77.08728      116.77485       52.61910
O         76.93094      115.57102       52.78366
C         75.09638      117.64861       53.86436
C         76.01505      117.89272       55.04357
C         76.73404      119.09291       55.16307
C         76.18467      116.89221       56.01848
C         77.61949      119.28102       56.22985
C         77.06362      117.08565       57.08590
C         77.79027      118.27468       57.19269
O         78.64997      118.43640       58.21868
H         75.19862      116.27534       51.02912
H         76.20986      118.70569       52.29964
H         74.63154      116.64503       53.97747
H         74.27603      118.39677       53.85691
H         76.62082      119.87504       54.42363
H         75.64662      115.95463       55.94869
H         78.17661      120.20619       56.30323
H         77.18565      116.30462       57.82534
H         79.18409      119.23683       58.32144
N         78.34198      117.30955       52.54120
C         79.55277      116.50123       52.56445
C         80.44612      116.89173       53.73474
O         80.91324      118.02314       53.73776
C         80.33556      116.71168       51.25260
C         79.52044      116.32027       50.01471
C         80.31268      116.57098       48.76451
O         80.72131      117.81897       48.46222
O         80.58301      115.64906       48.01225
H         78.44599      118.33087       52.43382
H         79.28399      115.43921       52.62355
H         81.26572      116.10145       51.28121
H         80.62295      117.78475       51.16762
H         78.58854      116.92300       49.95992
H         79.24509      115.24531       50.08410
N         80.77285      116.05695       54.76983
C         80.21252      114.72846       55.01763
C         80.52972      113.72673       53.92656
O         81.69217      113.53379       53.59822
C         80.70032      114.12647       56.35698
C         80.34111      115.00015       57.56711
C         80.43663      114.22606       58.84714
O         79.59877      113.18756       59.04176
O         81.20353      114.56999       59.73215
H         81.42771      116.43646       55.47026
H         79.10870      114.83519       55.11172
H         81.79722      113.93382       56.34989
H         80.18053      113.14733       56.46304
H         79.28887      115.33215       57.48703
H         80.99367      115.89844       57.59950
N         79.51421      113.00780       53.36603
C         79.70340      111.98846       52.35726
H         79.10622      112.24880       51.45885
H         80.76663      111.87754       52.06154
H         79.34365      111.01528       52.75480
H         78.54744      113.16866       53.68791
Ca        79.33986      112.16490       61.03776
O         78.71102      115.90147       60.99642
H         79.60400      116.32609       61.04157
H         78.08993      116.64896       60.80869
O         80.38830      113.77112       63.34317
H         80.02807      113.07008       63.94282
H         81.20494      113.36877       62.95359
O         76.77632      111.48182       63.37177
H         76.93777      110.52986       63.59108
H         77.16630      111.97976       64.13348
O         77.39179      114.72952       63.55796
H         76.40930      114.78790       63.66295
H         77.73688      114.68353       64.48484

Ca 1.0



