%chk=apoCaM-CA-Ng.loop2.water4.frame393.chk
%nprocshared=20
%mem=10GB
%nosave
#b3lyp/svp scf=(tight,noincore,xqc) Test 
#IOP(5/87=12) Density=Current Pop=(MK,readradii) iop(6/33=2) iop(6/42=6)

apoCaM-CA-Ng.loop2.water4.frame393 

   -2  1 
C         -4.94310       60.44273       33.40113
C         -6.31783       59.85206       33.51971
O         -7.29313       60.58983       33.50440
H         -4.43569       60.03263       32.50263
H         -4.99244       61.54896       33.31099
H         -4.34839       60.18488       34.30206
N         -6.46899       58.50440       33.62566
C         -7.77240       57.86103       33.73394
C         -8.42603       58.19268       35.06836
O         -7.87748       57.82533       36.09791
C         -7.60711       56.32697       33.59781
C         -8.90077       55.54967       33.60313
O         -9.98242       56.10908       33.69479
O         -8.86007       54.20824       33.49663
H         -5.61996       57.91763       33.59108
H         -8.40323       58.20390       32.88305
H         -6.96597       55.95069       34.42513
H         -7.09198       56.10795       32.63737
N         -9.62549       58.84295       35.11741
C        -10.38238       59.04724       36.34975
C        -10.61018       60.52204       36.62998
O        -11.10213       61.23450       35.76563
C        -11.72489       58.32512       36.23376
H        -10.05467       59.15634       34.23297
H         -9.85728       58.59295       37.21858
H        -12.30397       58.44584       37.17473
H        -12.32125       58.72729       35.38745
H        -11.55288       57.23994       36.06733
N        -10.30442       61.03280       37.85849
C        -10.49555       62.43202       38.23474
C        -11.95301       62.84402       38.11429
O        -12.80634       62.20615       38.71749
C        -10.05728       62.67794       39.69599
C         -8.62085       62.31760       39.94391
O         -7.72690       62.86768       39.32140
O         -8.31546       61.39358       40.87435
H         -9.92099       60.38813       38.56580
H         -9.86344       63.06991       37.57761
H        -10.69949       62.08372       40.38376
H        -10.19295       63.75458       39.94082
N        -12.30159       63.94061       37.38399
C        -13.68884       64.38377       37.29596
C        -13.95223       65.67995       36.53316
O        -15.12465       66.00438       36.40505
H        -11.54429       64.44576       36.91582
H        -14.08577       64.53318       38.32498
H        -14.27639       63.57470       36.81066
N        -12.97136       66.48891       36.02631
C        -13.24069       67.73228       35.31077
C        -12.66195       67.71664       33.89988
O        -12.81909       68.71848       33.21438
C        -12.64596       68.91026       36.10977
C        -13.33269       69.09760       37.43930
N        -14.64019       69.44744       37.49474
O        -12.69927       68.95476       38.47415
H        -11.98002       66.26706       36.16121
H        -14.33279       67.90437       35.19377
H        -12.76254       69.86001       35.54521
H        -11.55854       68.72723       36.26125
H        -15.18422       69.59603       36.63209
H        -15.10841       69.58890       38.40197
N        -12.01253       66.63353       33.36999
C        -11.49749       66.63670       32.00659
C        -10.36428       67.62250       31.81793
O         -9.89791       68.20657       32.78837
H        -11.91048       65.76606       33.91469
H        -12.33333       66.88935       31.31807
H        -11.12268       65.62620       31.73623
N         -9.89089       67.88666       30.56400
C         -8.86201       68.89655       30.32611
C         -7.46419       68.40901       30.69614
O         -6.55657       69.22512       30.70332
C         -8.88607       69.42899       28.86577
C         -8.37290       68.43139       27.81442
O        -10.17089       69.89947       28.53504
H        -10.35037       67.42325       29.76560
H         -9.11510       69.77497       30.96354
H         -8.19933       70.30212       28.81031
H        -10.73090       69.12317       28.27165
H         -8.96670       67.49464       27.81327
H         -8.42148       68.89351       26.80613
H         -7.31057       68.19290       28.01229
N         -7.21115       67.09306       30.97926
C         -5.88486       66.58347       31.31739
C         -5.96521       66.04426       32.72549
O         -6.74283       65.12733       32.95079
C         -5.45582       65.45508       30.32711
C         -5.56118       65.86625       28.83737
C         -4.04469       64.93110       30.65434
C         -4.66997       67.03676       28.41590
H         -7.98186       66.41141       30.95835
H         -5.13052       67.39746       31.27918
H         -6.16148       64.60201       30.44716
H         -6.61745       66.11934       28.61528
H         -5.30581       64.98930       28.20298
H         -3.28839       65.73905       30.57359
H         -4.00454       64.52465       31.68641
H         -3.77024       64.10957       29.95854
H         -4.91318       67.95186       28.99059
H         -3.59762       66.79031       28.54951
H         -4.83945       67.25133       27.33938
N         -5.23668       66.59816       33.74102
C         -5.40930       66.14009       35.11645
C         -4.94660       67.19653       36.11757
O         -4.32780       66.87477       37.12079
C         -4.75060       64.74680       35.26420
C         -5.08453       63.99630       36.51563
O         -5.70200       64.51396       37.43243
O         -4.82687       62.67871       36.55909
H         -4.62704       67.40371       33.53797
H         -6.50667       66.06056       35.28781
H         -3.64537       64.83111       35.16511
H         -5.10060       64.10063       34.43493
N         -5.26730       68.50179       35.90046
C         -4.98217       69.60512       36.81604
C         -3.51491       69.68279       37.23422
O         -2.64882       69.67328       36.37172
C         -5.41468       70.93646       36.16461
C         -6.91936       71.01272       36.09093
C         -7.65393       71.15063       37.28198
C         -7.60262       70.94229       34.86525
C         -9.04618       71.21841       37.25104
C         -9.00130       70.99924       34.84012
C         -9.71988       71.14120       36.03152
H         -5.76483       68.72655       35.02501
H         -5.59469       69.44206       37.71997
H         -4.94308       71.00943       35.15833
H         -5.06607       71.80909       36.75947
H         -7.14441       71.21418       38.23567
H         -7.05875       70.82794       33.93579
H         -9.60013       71.33034       38.17421
H         -9.52994       70.93319       33.89830
H        -10.79863       71.19285       36.01308
N         -3.16553       69.79907       38.56078
C         -1.80176       69.85027       39.08061
C         -0.96665       68.66005       38.66540
O          0.15977       68.83335       38.22302
C         -1.99838       69.81146       40.60713
C         -3.29822       70.55139       40.77148
C         -4.12553       69.96072       39.63927
H         -1.32877       70.80914       38.77212
H         -2.20157       68.77050       40.95074
H         -1.14178       70.20808       41.19197
H         -3.77320       70.47912       41.77283
H         -3.10264       71.62420       40.54179
H         -4.55183       68.96390       39.89195
H         -4.92842       70.69441       39.41051
N         -1.49319       67.40960       38.77330
C         -0.80104       66.17567       38.41463
C         -0.28212       66.27357       36.98967
O          0.89414       66.01597       36.77552
C         -1.75347       64.96841       38.59841
C         -2.18912       64.78965       40.07814
C         -3.26908       63.76047       40.18845
O         -4.41126       64.09259       40.46451
O         -3.00963       62.48594       39.87861
H         -2.47113       67.34821       39.09036
H          0.06902       66.01712       39.09042
H         -1.25876       64.03395       38.25181
H         -2.64865       65.13054       37.96010
H         -2.60686       65.73307       40.47614
H         -1.32332       64.50462       40.71228
N         -1.08056       66.73433       35.98571
C         -0.61595       66.96364       34.63241
H          0.44002       66.65339       34.48711
H         -1.25498       66.40351       33.92020
H         -0.68977       68.04899       34.40286
H         -2.05123       66.99501       36.19610
Ca        -4.48160       61.61599       38.48688
O         -5.03259       60.11547       41.21707
H         -4.47515       60.78431       41.68798
H         -5.94516       60.26084       41.57165
O         -7.28841       61.40242       36.44358
H         -7.67168       60.51052       36.61860
H         -6.49801       61.20142       35.88737
O         -3.80814       59.46622       36.96505
H         -3.88645       58.48217       37.01415
H         -2.84559       59.65510       37.10292
O         -6.90240       59.35062       38.90651
H         -6.73965       58.51372       38.40457
H         -7.81682       59.24580       39.27004

Ca 1.0



