%chk=apoCaM-CA-Ng.loop1.water3.frame1356.chk
%nprocshared=20
%mem=10GB
%nosave
#b3lyp/svp scf=(tight,noincore,xqc) Test 
#IOP(5/87=12) Density=Current Pop=(MK,readradii) iop(6/33=2) iop(6/42=6)

apoCaM-CA-Ng.loop1.water3.frame1356 

   0  1 
C         68.19612       34.33047      102.30906
C         68.30823       35.70336      102.90526
O         67.91565       36.65539      102.25236
H         67.13212       34.11568      102.07638
H         68.79068       34.28014      101.37281
H         68.56872       33.55111      103.00654
N         68.83396       35.87676      104.14940
C         68.97865       37.17434      104.80880
C         70.43762       37.50450      105.10276
O         70.69002       38.48403      105.79149
C         68.12935       37.19275      106.10058
C         68.54584       36.22610      107.18490
O         67.83882       36.18633      108.32952
O         69.51408       35.49315      107.05737
H         69.14999       35.03827      104.65855
H         68.58620       37.99165      104.16644
H         67.07479       36.97922      105.82347
H         68.16254       38.21633      106.53358
N         71.45216       36.74513      104.59961
C         72.86181       36.97424      104.89668
C         73.29535       38.40598      104.58419
O         73.84711       39.01902      105.48746
C         73.76843       35.90752      104.23074
C         73.42721       34.49470      104.76053
C         74.36199       33.40828      104.21500
C         73.94682       31.99202      104.66782
N         73.99431       31.81974      106.12239
H         71.21702       35.96924      103.96759
H         73.00828       36.83590      105.99300
H         74.82530       36.12973      104.49834
H         73.67741       35.93696      103.12423
H         72.38967       34.22071      104.48176
H         73.50350       34.51171      105.86782
H         75.40640       33.61400      104.53547
H         74.32550       33.42931      103.10417
H         74.63984       31.25974      104.19814
H         72.91942       31.76766      104.30310
H         73.77101       30.82433      106.35264
H         74.94956       32.04341      106.48362
H         73.28135       32.42036      106.59361
N         73.05697       39.07537      103.41579
C         72.35438       38.56984      102.24106
C         71.00370       39.26928      102.08284
O         70.66790       40.13796      102.87642
C         73.26112       38.70088      101.00074
C         73.75938       40.10332      100.78886
O         72.89960       41.11072      100.54779
O         74.95641       40.33233      100.84802
H         73.36155       40.06180      103.38259
H         72.12194       37.49619      102.35305
H         72.73367       38.35567      100.08711
H         74.14002       38.03469      101.15094
N         70.13112       38.84758      101.12466
C         68.74085       39.27848      101.04270
C         68.50233       40.70287      100.61102
O         69.44054       41.44102      100.35460
H         70.42333       38.08452      100.49593
H         68.25690       39.12987      102.02988
H         68.22365       38.63492      100.29910
N         67.20388       41.12209      100.48178
C         66.78725       42.45508      100.03073
C         65.37764       42.42346       99.41170
O         64.66752       41.44698       99.60262
C         66.81781       43.43973      101.22825
C         68.22645       43.69124      101.64529
O         69.08101       44.20530      100.74185
O         68.61701       43.37578      102.75704
H         66.47574       40.42044      100.68096
H         67.47471       42.76362       99.22101
H         66.21500       43.02249      102.06580
H         66.38341       44.42250      100.98638
N         64.87304       43.43768       98.63616
C         65.60400       44.62394       98.21359
C         66.73503       44.29471       97.27030
O         66.83800       43.16635       96.80830
H         63.90111       43.35026       98.29967
H         65.98421       45.17364       99.08821
H         64.92325       45.32070       97.67858
N         67.65149       45.25269       96.96325
C         68.80297       45.01059       96.10015
C         69.62890       43.84550       96.62570
O         69.91193       43.79846       97.81306
C         69.66650       46.29083       95.96801
C         70.81961       46.09445       94.96917
O         70.17174       46.66494       97.22379
H         67.53622       46.18639       97.38879
H         68.43132       44.76649       95.08006
H         69.00470       47.09954       95.57941
H         70.54228       47.58086       97.12462
H         71.39091       47.03974       94.85675
H         71.52018       45.30436       95.31163
H         70.41888       45.80921       93.97310
N         70.06886       42.88945       95.75712
C         70.88148       41.72451       96.09269
C         72.17534       42.11528       96.78165
O         72.15937       42.48978       97.94555
C         70.08045       40.65422       96.88870
C         68.80566       40.19607       96.12939
C         70.95906       39.43805       97.25245
C         69.05367       39.57191       94.74867
H         69.84225       43.00970       94.75815
H         71.16811       41.25241       95.13082
H         69.74260       41.10307       97.84488
H         68.12998       41.06415       95.99141
H         68.26648       39.45367       96.75733
H         70.36524       38.68972       97.81920
H         71.38092       38.95594       96.34682
H         71.80587       39.74158       97.90313
H         69.70479       38.67731       94.81789
H         68.08475       39.25757       94.30895
H         69.50659       40.30364       94.04914
N         73.35250       41.99672       96.11035
C         74.65105       42.23369       96.71810
C         75.38036       43.40488       96.08820
O         76.49294       43.66038       96.52595
C         75.49931       40.93611       96.66637
C         75.81582       40.46562       95.24261
O         74.82595       39.90162       97.33275
H         73.32807       41.70602       95.12274
H         74.53623       42.49727       97.79424
H         76.47877       41.12089       97.16837
H         74.90976       40.08959       98.30116
H         74.89211       40.19336       94.69265
H         76.35893       41.25230       94.67894
H         76.45704       39.56055       95.28817
N         74.83949       44.18279       95.09466
C         75.54416       45.35416       94.57239
C         75.71539       46.33063       95.72413
O         74.73386       46.90873       96.17083
C         74.78490       45.97645       93.37670
C         75.53794       47.16767       92.77579
O         74.62250       44.99377       92.38536
H         73.90796       43.95704       94.71769
H         76.53611       45.00838       94.20297
H         73.78451       46.31633       93.73651
H         73.83267       45.25459       91.84301
H         74.96306       47.57764       91.91807
H         75.66458       47.97552       93.52615
H         76.53773       46.84795       92.41182
N         76.91988       46.39735       96.36403
C         77.14650       46.99806       97.67809
C         76.24430       46.35894       98.73633
O         75.32155       45.63524       98.39291
C         76.96822       48.52901       97.68408
C         77.81039       49.24236       96.61677
C         77.65739       50.76636       96.75667
C         78.30713       51.56145       95.61231
N         79.75480       51.36619       95.53222
H         77.71459       45.87769       95.96039
H         78.20126       46.77223       97.95518
H         77.26368       48.90767       98.68766
H         75.89933       48.78569       97.52198
H         77.45642       48.92374       95.61227
H         78.87922       48.96123       96.73111
H         78.08232       51.09327       97.73184
H         76.57469       51.01920       96.75019
H         78.09954       52.64124       95.78503
H         77.83659       51.27410       94.64623
H         79.98053       50.37530       95.29106
H         80.13324       51.97977       94.77442
H         80.20676       51.63042       96.43727
N         76.46034       46.57779      100.06204
C         75.55400       46.08282      101.09941
C         75.26956       44.58683      100.97698
O         74.10039       44.25678      100.85250
C         76.04047       46.42969      102.52399
C         76.10256       47.94445      102.77446
C         76.55608       48.23081      104.17627
O         75.74975       48.89630      105.02466
O         77.66084       47.87023      104.55105
H         77.28935       47.12602      100.33295
H         74.57608       46.60142      100.96585
H         77.03237       45.97717      102.72140
H         75.31809       45.99856      103.25348
H         75.09149       48.38034      102.61817
H         76.80763       48.43817      102.07534
N         76.20869       43.59937      100.99002
C         77.64029       43.77315      101.06621
H         77.95431       44.82845      101.08733
H         78.01801       43.26226      101.97593
H         78.10218       43.30168      100.17362
H         75.87650       42.62778      100.91816
Ca        71.29809       44.04993      101.01684
O         72.42274       45.30446       98.57112
H         72.48070       45.22696       97.58625
H         72.70712       46.23151       98.76750
O         71.65157       43.11452      103.81277
H         71.94181       42.47142      103.11815
H         70.78728       42.75644      104.13593
O         71.92935       46.61961      102.19670
H         71.82501       47.02428      101.29891
H         71.00695       46.38400      102.47038

Ca 1.0



