%chk=apoCaM-CA-Ng.loop1.water1.frame848.chk
%nprocshared=20
%mem=10GB
%nosave
#b3lyp/svp scf=(tight,noincore,xqc) Test 
#IOP(5/87=12) Density=Current Pop=(MK,readradii) iop(6/33=2) iop(6/42=6)

apoCaM-CA-Ng.loop1.water1.frame848 

   0  1 
C         50.44410       58.89176      106.70088
C         49.12259       58.77151      106.00302
O         48.84486       57.72863      105.42708
H         51.02042       59.72893      106.25128
H         50.28693       59.09294      107.77983
H         51.03613       57.95833      106.58630
N         48.25751       59.82638      105.99421
C         46.98644       59.81771      105.26344
C         47.21673       59.59803      103.76891
O         48.36578       59.48390      103.36347
C         46.18572       61.10859      105.55815
C         46.87540       62.39138      105.16672
O         48.09490       62.38578      104.59194
O         46.32712       63.45731      105.39638
H         48.52918       60.67085      106.52144
H         46.37595       58.96609      105.63767
H         45.99292       61.14726      106.65334
H         45.19957       61.06188      105.05038
N         46.17615       59.49114      102.88715
C         46.38635       59.08192      101.49930
C         46.13082       60.24543      100.55135
O         45.29453       60.15325       99.66641
C         45.53776       57.81435      101.21886
C         46.11299       56.85445      100.15759
C         46.32869       57.42331       98.75107
C         46.88699       56.31800       97.83568
N         47.18825       56.82523       96.50008
H         45.20965       59.63861      103.21524
H         47.44931       58.79132      101.35818
H         44.47984       58.08917      101.01627
H         45.53329       57.19699      102.14578
H         45.42542       55.98213      100.09159
H         47.09412       56.48432      100.53095
H         47.06277       58.25571       98.79859
H         45.36897       57.80125       98.33778
H         46.14267       55.49351       97.75725
H         47.82072       55.90208       98.27601
H         47.91860       57.57158       96.55419
H         47.54694       56.04078       95.90884
H         46.32311       57.20426       96.06199
N         46.87168       61.38170      100.68476
C         46.85107       62.50459       99.74383
C         48.25421       63.10536       99.63974
O         48.86807       63.30799      100.67815
C         45.77765       63.55526      100.10639
C         45.89898       64.23145      101.44672
O         45.09334       65.09666      101.74991
O         46.86341       63.90225      102.32174
H         47.55507       61.40551      101.45682
H         46.54058       62.13905       98.74896
H         44.77861       63.07019      100.06305
H         45.80540       64.34400       99.32184
N         48.87974       63.42648       98.46819
C         48.32085       63.40972       97.12566
C         47.92052       62.04007       96.63445
O         48.68963       61.09869       96.75996
H         49.84248       63.79301       98.54235
H         49.10189       63.78815       96.43285
H         47.46753       64.12153       97.07094
N         46.72174       61.88840       96.00469
C         46.17902       60.62521       95.52060
C         46.12312       60.63578       94.00342
O         45.67266       61.61441       93.42192
C         44.77994       60.44930       96.14681
C         44.04169       59.18813       95.77490
O         42.84582       58.94178       96.34041
O         44.49315       58.39088       94.97031
H         46.14351       62.73115       95.85513
H         46.80997       59.76986       95.84628
H         44.13633       61.31389       95.87650
H         44.90922       60.44787       97.24570
N         46.54376       59.54416       93.29530
C         46.54878       59.49332       91.84366
C         47.74784       60.20168       91.25187
O         47.81486       60.30925       90.03718
H         46.84175       58.69800       93.80319
H         45.59793       59.92169       91.45499
H         46.60223       58.43648       91.50681
N         48.73652       60.70333       92.04802
C         49.86934       61.47160       91.55104
C         49.72315       62.89856       92.05166
O         48.77143       63.18858       92.76212
C         51.21696       60.80491       91.95099
C         51.40520       60.61948       93.46378
O         51.31232       59.55286       91.32124
H         48.67067       60.59362       93.06770
H         49.84918       61.53151       90.44104
H         52.03685       61.46009       91.57624
H         52.27997       59.33897       91.24352
H         52.41705       60.20585       93.66398
H         51.31405       61.58323       93.99730
H         50.66325       59.90655       93.87780
N         50.62191       63.85483       91.68594
C         50.48497       65.25614       92.08713
C         50.40693       66.19862       90.89476
O         50.05364       67.35301       91.11047
C         51.63264       65.67063       93.04625
C         53.02048       65.50651       92.36846
C         51.52725       64.86781       94.35384
C         54.18627       65.98687       93.22664
H         51.42411       63.57124       91.11156
H         49.52459       65.39722       92.63043
H         51.48558       66.74234       93.30863
H         53.03596       66.09990       91.42891
H         53.20753       64.44291       92.11060
H         50.51883       64.99921       94.80050
H         51.69735       63.79103       94.16669
H         52.26194       65.21894       95.10430
H         54.05039       67.05442       93.49708
H         54.28418       65.37459       94.14565
H         55.12864       65.87810       92.64945
N         50.75275       65.82005       89.63094
C         50.69677       66.71406       88.48517
C         52.11045       67.01972       88.03405
O         52.85545       66.10154       87.71293
C         49.86511       66.07890       87.35195
C         48.43155       65.79144       87.81634
O         49.83275       66.95807       86.25702
H         51.10973       64.87104       89.45241
H         50.20314       67.67364       88.75829
H         50.35160       65.12068       87.05103
H         49.53933       66.42780       85.47055
H         47.85008       65.33484       86.98831
H         48.42952       65.08103       88.67019
H         47.93087       66.73267       88.12902
N         52.54468       68.30977       87.99619
C         53.87968       68.69812       87.56170
C         54.34240       69.95746       88.28789
O         55.42936       69.94995       88.84705
C         53.91314       68.86608       86.01829
C         55.33183       69.13123       85.49907
O         53.07333       69.91381       85.60247
H         51.86772       69.05019       88.23104
H         54.59916       67.88118       87.80039
H         53.59165       67.90386       85.55085
H         52.22308       69.50841       85.29020
H         56.01059       68.30130       85.79160
H         55.32353       69.19691       84.38988
H         55.73414       70.08456       85.90239
N         53.57764       71.08811       88.28026
C         54.03224       72.39072       88.74681
C         53.18508       72.92329       89.89008
O         51.96500       72.91203       89.80396
C         53.98004       73.32724       87.53036
C         54.40370       74.77401       87.82525
C         54.64871       75.56689       86.52992
C         53.43223       75.64056       85.59037
N         53.77609       76.35461       84.36138
H         52.64628       71.05793       87.84050
H         55.09243       72.35200       89.08075
H         52.94926       73.33151       87.11353
H         54.66902       72.89766       86.76963
H         55.36186       74.76800       88.38853
H         53.63311       75.27296       88.45408
H         55.48887       75.08315       85.98562
H         54.96244       76.59787       86.80209
H         52.59032       76.15542       86.10325
H         53.10017       74.61920       85.30714
H         54.55008       75.85420       83.86510
H         52.94064       76.38083       83.73339
H         54.07290       77.33257       84.58068
N         53.80156       73.51768       90.95523
C         53.08039       74.18978       92.02978
C         52.38511       73.18502       92.94359
O         51.16785       73.26143       93.03076
C         53.99780       75.17623       92.79584
C         54.49837       76.31356       91.88238
C         55.39665       77.28755       92.59826
O         55.86027       78.23625       91.98617
O         55.70529       77.12869       93.90087
H         54.83094       73.57937       90.94771
H         52.29491       74.83789       91.57552
H         54.88015       74.66475       93.21329
H         53.41914       75.63193       93.63013
H         53.62473       76.87153       91.48070
H         55.06909       75.89144       91.02865
N         53.01958       72.20183       93.65151
C         54.44531       71.95172       93.65924
H         54.99258       72.78524       94.13258
H         54.66081       71.05437       94.27739
H         54.81570       71.75777       92.63293
H         52.43776       71.56631       94.21992
Ca        49.16396       64.32379      104.12430
O         51.02726       61.26871      102.78623
H         50.47112       60.68978      102.20696
H         51.95883       61.04396      102.53695

Ca 1.0



