%chk=apoCaM-CA-Ng.loop4.water3.frame80.chk
%nprocshared=20
%mem=10GB
%nosave
#b3lyp/svp scf=(tight,noincore,xqc) Test 
#IOP(5/87=12) Density=Current Pop=(MK,readradii) iop(6/33=2) iop(6/42=6)

apoCaM-CA-Ng.loop4.water3.frame80 

   -3  1 
C         47.34950       68.03700       31.53261
C         47.90978       69.23992       30.84300
O         48.75891       69.88283       31.42809
H         46.55043       67.55749       30.93320
H         48.17302       67.30259       31.67657
H         46.95076       68.32487       32.52669
N         47.54226       69.56346       29.56985
C         48.18818       70.60414       28.77253
C         49.69283       70.40866       28.76931
O         50.42549       71.29750       29.15959
C         47.65454       72.02896       29.07023
C         47.77141       72.59843       30.46470
O         48.95320       73.02585       30.96050
O         46.74813       72.87332       31.07170
H         46.85633       68.95997       29.09198
H         47.87989       70.44600       27.71319
H         46.57148       72.00227       28.81205
H         48.12609       72.74621       28.36141
N         50.18329       69.21659       28.31605
C         51.57412       68.78159       28.16982
C         52.32191       69.58936       27.11485
O         52.62415       69.01793       26.07553
C         52.35320       68.62837       29.50747
C         53.75119       67.97492       29.28656
C         51.55281       67.81160       30.53733
C         53.72524       66.57955       28.63913
H         49.48010       68.52217       28.01672
H         51.48600       67.75252       27.76180
H         52.51672       69.62920       29.95060
H         54.26716       67.89165       30.26798
H         54.37265       68.63247       28.64422
H         50.62397       68.34286       30.80759
H         51.27460       66.81282       30.14379
H         52.14164       67.67951       31.47030
H         53.30666       66.60583       27.61419
H         54.76027       66.19948       28.53442
H         53.14806       65.85776       29.25318
N         52.64206       70.90765       27.27461
C         53.25149       71.68007       26.20390
C         54.73560       71.34441       26.04572
O         55.10449       70.95781       24.94621
C         52.96620       73.20492       26.32019
C         51.49158       73.50261       26.41359
O         50.72292       73.10565       25.55315
O         51.01454       74.23294       27.43904
H         52.40824       71.39924       28.14055
H         52.72942       71.41299       25.25540
H         53.36065       73.69970       25.40702
H         53.44723       73.69383       27.17864
N         55.67325       71.46864       27.03953
C         55.36261       71.84976       28.41081
C         56.57554       72.20463       29.26441
O         57.69356       72.01944       28.80577
H         56.65342       71.27376       26.78532
H         54.78357       71.03163       28.88308
H         54.77015       72.74220       28.37529
N         56.47259       72.73062       30.53246
C         55.23817       73.06910       31.25302
C         54.33886       71.85044       31.31965
O         53.26074       71.87826       30.74532
C         54.55775       74.34120       30.69276
C         55.46313       75.53556       30.81037
O         55.79344       76.16016       29.81541
O         55.89927       75.93378       32.02148
H         57.35364       72.89534       31.04426
H         55.48371       73.36110       32.29605
H         53.65158       74.55189       31.29575
H         54.22824       74.23800       29.64910
N         54.73173       70.70062       31.94465
C         55.91969       70.59334       32.77750
C         57.00048       69.79406       32.12176
O         56.79192       69.22832       31.05647
H         54.14897       69.85847       31.84080
H         55.64885       70.16034       33.76420
H         56.36144       71.57957       32.98844
N         58.23816       69.77364       32.69250
C         59.36497       69.10141       32.06319
C         59.20797       67.58263       32.05242
O         59.99833       66.92386       31.39222
C         60.71725       69.57376       32.65261
C         60.94679       69.30481       34.14996
C         62.36075       69.68501       34.53455
N         62.80642       70.95854       34.41600
O         63.12067       68.82480       34.95088
H         58.38394       70.31990       33.55475
H         59.38614       69.43340       31.00132
H         60.79922       70.67006       32.48038
H         61.52705       69.07975       32.07435
H         60.79185       68.22630       34.35537
H         60.23410       69.88276       34.77590
H         62.19274       71.70993       34.07151
H         63.77855       71.19391       34.66880
N         58.21144       66.96065       32.74789
C         57.96403       65.52102       32.72634
C         58.31012       64.87725       34.05682
O         58.12691       63.67284       34.17480
C         56.49148       65.21099       32.30650
C         56.29252       65.43755       30.80767
C         55.43405       66.00762       33.09698
H         57.60837       67.52526       33.36040
H         58.63385       65.00974       31.99994
H         56.30249       64.12747       32.47522
H         56.99532       64.80083       30.22844
H         55.26197       65.13415       30.52973
H         56.45744       66.49974       30.53322
H         54.41275       65.67921       32.80677
H         55.55474       65.85525       34.18914
H         55.49521       67.09381       32.87100
N         58.87763       65.58439       35.07588
C         59.30797       64.97061       36.32490
C         58.57750       65.55544       37.52581
O         58.77271       65.04189       38.61918
C         60.82744       65.19331       36.48120
C         61.60524       64.62746       35.31533
N         62.34156       65.43616       34.51651
O         61.56961       63.42740       35.09046
H         59.06951       66.58812       34.95609
H         59.10069       63.87768       36.31498
H         61.19548       64.72253       37.41750
H         61.01482       66.28739       36.55318
H         62.38256       66.44887       34.68611
H         62.87211       65.05207       33.72069
N         57.77497       66.65852       37.41985
C         57.19667       67.33880       38.57203
C         55.82727       67.92162       38.23231
O         55.64790       68.40020       37.12067
C         58.06959       68.56847       38.90247
C         59.54410       68.28923       39.07720
C         60.43806       68.75815       38.10015
C         60.05089       67.60806       40.19807
C         61.80973       68.56105       38.23745
C         61.43482       67.42168       40.33896
C         62.31689       67.90186       39.35700
O         63.65060       67.74537       39.47792
H         57.68804       67.13367       36.51333
H         57.16626       66.67572       39.46695
H         57.68517       69.08592       39.80957
H         57.95986       69.28156       38.05575
H         60.07160       69.27917       37.22527
H         59.38436       67.24370       40.96985
H         62.47947       68.93213       37.47524
H         61.82333       66.91374       41.21285
H         64.05482       67.31853       40.24570
N         54.92614       68.15094       39.22855
C         53.77873       69.06383       39.14817
C         52.65040       68.68158       38.19400
O         51.60466       69.30748       38.29398
C         54.28551       70.50398       38.85346
C         53.20723       71.59054       39.01177
C         53.78659       72.96342       38.86122
O         53.72334       73.83334       39.88676
O         54.29844       73.30585       37.80715
H         55.14158       67.76853       40.16293
H         53.33163       69.06896       40.16811
H         54.70782       70.56490       37.82649
H         55.10114       70.72705       39.57558
H         52.75225       71.49689       40.02090
H         52.41410       71.48913       38.24439
N         52.73458       67.68686       37.27022
C         51.64069       67.39627       36.34725
C         51.05116       66.04009       36.69533
O         50.48773       65.38509       35.82850
C         52.16675       67.42601       34.89184
C         52.92152       68.70490       34.47609
C         52.03885       69.89620       34.22277
O         51.35688       70.39025       35.10598
O         52.02713       70.41029       32.97639
H         53.57480       67.09796       37.21017
H         50.81722       68.13950       36.42588
H         51.33282       67.24685       34.17447
H         52.88645       66.58712       34.79185
H         53.41288       68.46656       33.50983
H         53.72586       68.94815       35.19921
N         51.12587       65.56162       37.97143
C         50.61415       64.26451       38.34391
H         49.52711       64.20653       38.12983
H         51.15543       63.47583       37.78019
H         50.77657       64.09746       39.43058
H         51.56125       66.12630       38.71568
Ca        50.52544       71.71758       31.92737
O         48.87392       72.41965       34.00582
H         47.89840       72.58294       34.00093
H         49.13507       72.42397       34.95980
O         51.83243       73.94127       33.50726
H         52.57671       73.56467       34.04042
H         51.43791       74.64174       34.08505
O         51.10010       74.69656       30.61787
H         51.61932       74.29457       29.87809
H         51.42890       75.62731       30.68110

Ca 1.0



