%chk=apoCaM-CA-Ng.loop2.water4.frame1165.chk
%nprocshared=20
%mem=10GB
%nosave
#b3lyp/svp scf=(tight,noincore,xqc) Test 
#IOP(5/87=12) Density=Current Pop=(MK,readradii) iop(6/33=2) iop(6/42=6)

apoCaM-CA-Ng.loop2.water4.frame1165 

   -2  1 
C         79.27654       71.52586      110.28247
C         78.37927       70.53759      110.97813
O         78.69632       69.35723      110.96042
H         80.15570       71.01084      109.83816
H         78.72888       72.04667      109.47119
H         79.65292       72.26678      111.02009
N         77.25884       70.91147      111.66290
C         76.77331       72.28210      111.78646
C         75.29218       72.35852      111.40097
O         74.90747       71.65698      110.47590
C         77.14319       72.80001      113.19380
C         76.55556       71.98036      114.31182
O         75.35118       71.94608      114.49700
O         77.37044       71.28672      115.12837
H         76.74769       70.18005      112.17456
H         77.30436       72.94192      111.07090
H         76.87531       73.86830      113.31901
H         78.25086       72.74006      113.27701
N         74.41596       73.21878      112.01487
C         73.00746       73.38066      111.64591
C         72.14938       72.14279      111.91046
O         70.99209       72.15446      111.51359
C         72.88077       73.85584      110.18691
H         74.75626       73.83817      112.76129
H         72.57521       74.19840      112.26575
H         71.82005       74.09047      109.95176
H         73.47158       74.78516      110.03922
H         73.22580       73.09184      109.46288
N         72.61320       71.06648      112.61400
C         71.83180       69.84986      112.84713
C         71.47589       69.68505      114.32726
O         71.82827       70.52936      115.13888
C         72.62314       68.63335      112.30499
C         73.89028       68.44354      113.08799
O         73.81177       68.24668      114.41653
O         74.97692       68.55823      112.54934
H         73.55924       71.09969      113.01153
H         70.86922       69.89790      112.29376
H         72.85471       68.80591      111.22982
H         72.01780       67.70663      112.37329
N         70.74515       68.60419      114.72871
C         70.26412       68.37484      116.08367
C         71.33123       68.05081      117.11945
O         72.16585       68.89423      117.41010
H         70.43618       67.93219      114.01107
H         69.55195       67.52308      116.04525
H         69.68584       69.26096      116.42163
N         71.28716       66.85370      117.78434
C         72.09062       66.51965      118.96108
C         72.96319       65.31286      118.66387
O         72.45169       64.32332      118.15716
C         71.11792       66.23575      120.13373
C         71.75472       66.26960      121.51051
N         72.70706       65.38879      121.88789
O         71.38013       67.11371      122.31098
H         70.58419       66.15675      117.49292
H         72.71920       67.38522      119.25674
H         70.58585       65.27183      119.97193
H         70.34923       67.03990      120.12779
H         73.03255       64.65919      121.25216
H         73.11730       65.43285      122.83294
N         74.29402       65.31880      118.96364
C         75.19140       64.21558      118.64471
C         74.82519       62.88887      119.30390
O         73.85868       62.82613      120.04554
H         74.70091       66.15180      119.41625
H         76.21883       64.49056      118.97145
H         75.19148       64.08301      117.54221
N         75.53679       61.74616      119.07988
C         76.69927       61.65658      118.20335
C         76.40533       60.73717      117.03844
O         75.41643       60.01732      117.06223
C         77.92695       61.14506      118.98924
C         78.30656       62.09533      120.12743
O         77.64929       59.87126      119.51915
H         75.22037       60.88083      119.54727
H         76.94561       62.64565      117.77151
H         78.79001       61.09049      118.28342
H         78.48567       59.33920      119.47053
H         77.47743       62.18581      120.86133
H         79.20198       61.70647      120.65699
H         78.54350       63.10190      119.72287
N         77.22090       60.74664      115.94867
C         77.01016       59.86089      114.81278
C         77.54313       58.48340      115.20670
O         78.73455       58.41601      115.47599
C         77.75226       60.39648      113.54677
C         77.36143       61.85880      113.17689
C         77.53748       59.45950      112.34289
C         75.87432       62.09463      112.89784
H         78.00240       61.41917      115.92788
H         75.93874       59.87072      114.55566
H         78.84534       60.41314      113.75590
H         77.93798       62.16302      112.27593
H         77.66089       62.54789      113.99361
H         76.46415       59.37445      112.08304
H         78.09343       59.83792      111.45890
H         77.91758       58.44078      112.56480
H         75.26044       61.88841      113.79866
H         75.71781       63.15991      112.62513
H         75.52306       61.47133      112.05286
N         76.80519       57.33470      115.29828
C         75.37434       57.17033      115.05562
C         75.12706       56.15883      113.95017
O         76.06948       55.53127      113.48072
C         74.68805       56.71382      116.36731
C         75.26590       55.43774      116.93234
O         75.20930       54.39471      116.30063
O         75.84999       55.44519      118.14621
H         77.31939       56.48600      115.58569
H         74.90082       58.11257      114.73780
H         73.59826       56.57319      116.20619
H         74.81330       57.51319      117.12656
N         73.86347       55.94940      113.48096
C         73.55368       54.91951      112.49682
C         72.12080       55.06473      111.97944
O         71.21261       55.08380      112.80302
C         73.69336       53.51493      113.13230
C         73.44347       52.44772      112.09374
C         72.17566       51.85203      111.97664
C         74.46236       52.07875      111.19981
C         71.92950       50.91183      110.97263
C         74.21566       51.12671      110.20590
C         72.94884       50.54795      110.08902
H         73.10197       56.54889      113.83776
H         74.27841       55.00002      111.66846
H         72.95192       53.42982      113.95781
H         74.69170       53.34807      113.58931
H         71.37134       52.13589      112.64392
H         75.44380       52.53098      111.27204
H         70.94583       50.47112      110.87535
H         75.00398       50.84430      109.52042
H         72.75564       49.82060      109.31142
N         71.80862       55.07487      110.64408
C         72.76646       54.96286      109.55631
C         73.60749       56.22064      109.39810
O         74.82141       56.10813      109.51332
C         71.90271       54.56001      108.35188
C         70.54686       55.17341      108.64934
C         70.43981       55.01578      110.16453
H         73.46048       54.11253      109.72188
H         72.33847       54.76337      107.35049
H         71.73757       53.46008      108.43020
H         70.57945       56.24466      108.40171
H         69.69314       54.74813      108.08037
H         69.78902       55.81117      110.58776
H         70.03607       54.01305      110.43062
N         73.06754       57.43911      109.11717
C         73.87155       58.63966      108.96065
C         73.97064       58.95322      107.47459
O         72.94205       59.27521      106.89534
C         73.22086       59.81322      109.72441
C         73.10847       59.54212      111.23242
C         72.38136       60.66028      111.92418
O         71.24026       60.40679      112.59318
O         72.81431       61.80078      111.88322
H         72.06006       57.53498      108.96771
H         74.86395       58.49269      109.41154
H         72.19894       59.98588      109.31695
H         73.82079       60.73626      109.56287
H         74.12106       59.43158      111.67108
H         72.54814       58.59839      111.40705
N         75.12255       58.86823      106.73971
C         76.42717       58.42005      107.19647
H         77.16890       59.23077      107.04643
H         76.47588       58.10332      108.24825
H         76.73624       57.54211      106.59039
H         75.06711       59.11551      105.73944
Ca        75.39286       69.03145      115.79783
O         74.39137       69.52489      119.29322
H         74.54747       68.83884      119.98932
H         73.64198       70.06935      119.64309
O         76.57125       70.98464      117.98607
H         77.09722       70.76783      118.79616
H         76.65676       71.96591      117.88656
O         73.53095       71.94821      117.41863
H         72.74061       72.44790      117.09342
H         73.87069       72.48743      118.17647
O         77.25042       67.54780      117.22508
H         76.77177       66.79954      116.78648
H         76.90152       67.55751      118.15125

Ca 1.0



