%chk=apoCaM-CA-Ng.loop2.water5.frame746.chk
%nprocshared=20
%mem=10GB
%nosave
#b3lyp/svp scf=(tight,noincore,xqc) Test 
#IOP(5/87=12) Density=Current Pop=(MK,readradii) iop(6/33=2) iop(6/42=6)

apoCaM-CA-Ng.loop2.water5.frame746 

   -2  1 
C         85.91865       29.35403       -3.10256
C         87.17710       30.12959       -3.35788
O         87.16573       31.03430       -4.18031
H         85.08197       29.74265       -3.72184
H         86.08419       28.28626       -3.35852
H         85.63763       29.43271       -2.03148
N         88.31199       29.82375       -2.67041
C         89.58494       30.50310       -2.86708
C         89.94536       31.28108       -1.61593
O         90.90454       30.94945       -0.93171
C         90.68352       29.49243       -3.26906
C         90.45861       28.84346       -4.61223
O         91.37491       27.97748       -5.08440
O         89.47892       29.10605       -5.29253
H         88.27312       29.07083       -1.96532
H         89.53454       31.25327       -3.68830
H         90.77503       28.70323       -2.49227
H         91.65231       30.03509       -3.33606
N         89.25549       32.42268       -1.33652
C         89.64940       33.37257       -0.29965
C         88.42876       33.86431        0.48121
O         87.32042       33.54215        0.07446
C         90.32763       34.53277       -1.04898
H         88.51171       32.70661       -1.99445
H         90.37460       32.90341        0.39532
H         90.72330       35.33471       -0.41358
H         91.18993       34.13686       -1.62746
H         89.61278       34.99389       -1.76430
N         88.49249       34.68040        1.58144
C         89.70359       35.07279        2.30369
C         90.28777       33.88928        3.05196
O         89.61894       33.36625        3.93022
C         89.44445       36.25801        3.27447
C         88.46395       36.00753        4.39512
O         88.88060       36.07547        5.67380
O         87.28552       35.79427        4.16318
H         87.58964       35.02919        1.93166
H         90.44588       35.47279        1.60300
H         89.08870       37.13461        2.69088
H         90.42090       36.53527        3.72967
N         91.53288       33.41141        2.76933
C         92.10199       32.29116        3.51257
C         93.47002       31.84661        3.00224
O         93.95177       32.40194        2.02395
H         92.06904       33.86089        2.01226
H         91.40222       31.43595        3.43796
H         92.19262       32.58972        4.57929
N         94.19391       30.85212        3.60470
C         93.76930       30.13360        4.80894
C         92.54194       29.28154        4.53948
O         92.18574       29.08257        3.38621
C         94.89594       29.21154        5.33301
C         96.18855       29.94702        5.59484
N         96.25578       30.93888        6.51213
O         97.19219       29.63409        4.97119
H         95.11913       30.63193        3.20366
H         93.53171       30.89046        5.58734
H         95.08496       28.41587        4.57716
H         94.57605       28.71760        6.27612
H         95.42590       31.21450        7.05560
H         97.14596       31.43096        6.68164
N         91.82021       28.76437        5.57473
C         90.60503       28.00920        5.32740
C         89.85486       27.71620        6.60470
O         90.33665       26.95860        7.43223
H         92.10861       28.97066        6.54328
H         90.83566       27.06243        4.79357
H         89.95358       28.61756        4.66587
N         88.65188       28.31964        6.81912
C         87.80310       28.09909        7.98411
C         86.40345       27.72183        7.51985
O         86.13823       27.72740        6.32694
C         87.74537       29.39121        8.83887
C         89.11371       29.72142        9.44665
O         87.30331       30.46340        8.04765
H         88.31060       28.98831        6.11709
H         88.19823       27.27084        8.61127
H         87.03270       29.23523        9.68023
H         87.16224       31.23356        8.65770
H         89.86844       29.90390        8.65361
H         89.03448       30.63461       10.07503
H         89.45338       28.88545       10.09380
N         85.44422       27.40044        8.43599
C         84.05599       27.14345        8.07659
C         83.19869       28.18608        8.78162
O         83.13697       28.20348       10.00129
C         83.66833       25.67858        8.42603
C         82.15477       25.37946        8.25751
C         84.51505       24.69254        7.59438
C         81.61890       25.49917        6.83235
H         85.69879       27.36316        9.43321
H         83.91568       27.26216        6.98348
H         83.89962       25.50829        9.50030
H         81.57362       26.06593        8.90894
H         81.95132       24.34464        8.60975
H         84.25573       23.64372        7.85022
H         84.35131       24.84322        6.50522
H         85.59746       24.83615        7.79209
H         80.52665       25.29906        6.84374
H         81.78607       26.51321        6.42377
H         82.09236       24.75564        6.16003
N         82.53641       29.11451        8.03678
C         81.70603       30.19149        8.55392
C         80.28083       30.08019        8.02960
O         79.47887       30.94156        8.36753
C         82.30883       31.52936        8.08600
C         83.67222       31.75367        8.66619
O         83.79954       31.94790        9.86471
O         84.76670       31.72066        7.88329
H         82.64108       29.08452        7.02170
H         81.66139       30.16887        9.66529
H         81.66762       32.38786        8.38307
H         82.37166       31.52082        6.97604
N         79.87620       29.04645        7.23092
C         78.51138       28.88530        6.75703
C         78.49990       28.69476        5.23843
O         78.03929       27.66212        4.77070
C         77.90374       27.72160        7.57128
C         76.43553       27.46013        7.34603
C         75.48752       28.49141        7.47793
C         75.99426       26.15765        7.05560
C         74.12626       28.22339        7.31179
C         74.63030       25.89195        6.90543
C         73.69730       26.92419        7.03079
H         80.53108       28.29272        6.99110
H         77.91258       29.79022        6.98449
H         78.00948       27.99122        8.64527
H         78.50042       26.79715        7.40468
H         75.79352       29.50207        7.71240
H         76.70215       25.34235        6.96866
H         73.40317       29.02251        7.41117
H         74.29641       24.88341        6.69958
H         72.64163       26.71652        6.91636
N         78.98627       29.66104        4.39281
C         78.99819       29.58131        2.93458
C         79.60157       28.30488        2.38583
O         79.00572       27.69156        1.51202
C         79.86726       30.77929        2.51941
C         79.51924       31.79037        3.58177
C         79.53410       30.92863        4.83989
H         77.95792       29.71328        2.55976
H         80.94755       30.54309        2.66032
H         79.71796       31.11448        1.47053
H         80.17516       32.68569        3.62665
H         78.47218       32.12156        3.39255
H         80.56873       30.75637        5.21022
H         78.91421       31.43202        5.61068
N         80.79695       27.85625        2.85879
C         81.47762       26.67577        2.34226
C         80.58305       25.45781        2.47061
O         80.30537       24.81620        1.46655
C         82.85031       26.39941        3.02471
C         83.90011       27.53106        2.86246
C         83.82405       28.61762        3.90333
O         84.63749       29.68820        3.85071
O         83.09504       28.49399        4.86599
H         81.21677       28.39315        3.61707
H         81.69491       26.84438        1.26362
H         83.26294       25.51302        2.49449
H         82.75213       26.10910        4.09330
H         83.84132       27.94627        1.83479
H         84.91289       27.09308        2.99547
N         80.06800       25.09936        3.67657
C         79.19278       23.95838        3.83495
H         78.28746       24.08365        3.20295
H         79.72381       23.02813        3.54158
H         78.87395       23.86916        4.89537
H         80.28492       25.67016        4.50376
Ca        84.80499       30.88482        5.77284
O         88.71881       31.30746        5.44745
H         89.17175       30.87803        4.67898
H         89.41697       31.36389        6.14689
O         83.84940       33.69099        5.02567
H         84.16205       34.57899        5.33177
H         84.11713       33.64828        4.07353
O         87.34662       29.36946        2.75368
H         88.13343       29.87332        2.42662
H         86.67765       29.45787        2.02868
O         86.60541       32.37029        3.48793
H         86.56208       33.35215        3.59653
H         87.33357       32.22885        2.83327
O         86.93879       33.42031        6.85205
H         87.38161       33.71016        6.01658
H         86.16116       34.02569        6.94440

Ca 1.0



