%chk=apoCaM-CA-Ng.loop3.water4.frame226.chk
%nprocshared=20
%mem=10GB
%nosave
#b3lyp/svp scf=(tight,noincore,xqc) Test 
#IOP(5/87=12) Density=Current Pop=(MK,readradii) iop(6/33=2) iop(6/42=6)

apoCaM-CA-Ng.loop3.water4.frame226 

   0  1 
C         47.22469       53.74003       94.51426
C         48.26599       54.53538       95.24077
O         47.91566       55.42390       96.00273
H         46.20400       54.08881       94.77976
H         47.36794       53.85886       93.41927
H         47.32003       52.66741       94.78172
N         49.58686       54.27695       95.02663
C         50.68056       55.01457       95.64851
C         50.57515       56.48894       95.30064
O         50.54651       57.31977       96.19975
C         50.72314       54.77728       97.17985
C         50.87963       53.32389       97.52395
O         49.94095       52.70151       98.26254
O         51.86452       52.70537       97.15320
H         49.83784       53.53132       94.35907
H         51.63881       54.64056       95.22313
H         49.79608       55.16325       97.65498
H         51.58304       55.33042       97.61729
N         50.48285       56.88321       93.99624
C         50.34389       58.28197       93.60956
C         48.98016       58.51425       92.98184
O         48.88429       59.01618       91.86963
C         51.51291       58.70798       92.69731
C         52.86720       58.53774       93.40388
C         54.00100       59.18593       92.60159
C         55.33396       59.08207       93.35607
N         56.38432       59.83232       92.66877
H         50.48648       56.16702       93.25321
H         50.37155       58.94057       94.50463
H         51.37166       59.78317       92.45054
H         51.51062       58.12387       91.74963
H         53.07854       57.45719       93.56691
H         52.81732       59.04306       94.39283
H         53.75630       60.26157       92.46260
H         54.09419       58.70870       91.60106
H         55.63124       58.01342       93.44747
H         55.21325       59.50037       94.38034
H         56.53259       59.45364       91.70578
H         56.11971       60.84341       92.61408
H         57.27424       59.75085       93.21163
N         47.86094       58.16521       93.67668
C         46.50646       58.39711       93.19014
C         46.18318       59.88192       93.26015
O         46.49668       60.50433       94.26551
C         45.49741       57.59522       94.03158
C         44.13791       57.61000       93.38868
O         43.98513       57.15857       92.26467
O         43.08080       58.10581       94.04575
H         47.98167       57.69926       94.58877
H         46.42817       58.00291       92.15159
H         45.45742       57.99145       95.07039
H         45.82130       56.53357       94.07893
N         45.56330       60.52015       92.22974
C         45.34588       61.96058       92.21374
C         44.45956       62.53847       93.31381
O         44.47634       63.75553       93.43217
H         45.30122       59.97643       91.39435
H         44.92237       62.26944       91.23292
H         46.34573       62.43747       92.30252
N         43.64939       61.78928       94.12797
C         42.85527       62.38784       95.21782
C         43.13130       61.72873       96.57013
O         42.51028       62.11404       97.55110
C         41.34443       62.39831       94.85971
C         40.55437       61.10121       95.10185
N         40.10200       60.98356       96.48020
O         41.30177       59.98642       94.75048
H         43.57378       60.77775       93.95274
H         43.12421       63.46168       95.31714
H         41.25381       62.69753       93.79296
H         40.83134       63.19401       95.44439
H         39.34021       61.68755       96.61836
H         39.66429       60.04496       96.59772
N         44.06117       60.73953       96.70322
C         44.34000       60.04586       97.94545
C         43.24504       59.06854       98.30095
O         42.72844       59.11663       99.40735
H         44.63454       60.46336       95.89873
H         44.55287       60.77065       98.76121
H         45.25515       59.43025       97.79915
N         42.88989       58.10751       97.40167
C         41.98302       56.99985       97.68121
C         40.74551       57.06394       96.82062
O         40.84587       57.11212       95.60365
C         42.71305       55.67296       97.40960
C         43.80157       55.45218       98.42159
C         43.45986       55.22637       99.76523
C         45.15218       55.46731       98.04545
C         44.45392       55.02140      100.72105
C         46.14859       55.26869       99.00673
C         45.80080       55.04448      100.34839
O         46.74885       54.85062      101.28608
H         43.33453       58.13130       96.47465
H         41.65749       57.01584       98.74312
H         43.11924       55.69446       96.37249
H         42.00971       54.81322       97.47389
H         42.42059       55.20261      100.07086
H         45.43106       55.64362       97.01438
H         44.17396       54.84545      101.75197
H         47.18886       55.29008       98.70980
H         47.69227       54.86261      101.07282
N         39.52391       57.02445       97.42015
C         38.25910       57.05242       96.70690
C         37.55949       58.33516       97.09998
O         37.30789       59.16245       96.23447
C         37.43286       55.76832       97.03368
C         38.18131       54.46239       96.64428
C         36.03601       55.79646       96.38813
C         38.42586       54.27390       95.14168
H         39.48241       56.97073       98.44934
H         38.42302       57.08163       95.61594
H         37.28156       55.72433       98.13512
H         37.58747       53.59205       97.00124
H         39.16037       54.42630       97.16834
H         35.45553       56.66150       96.74825
H         36.09614       55.87516       95.28441
H         35.47000       54.87985       96.66204
H         39.05250       55.08800       94.72833
H         38.95705       53.31363       94.97428
H         37.46928       54.22513       94.58226
N         37.24025       58.57816       98.40264
C         36.61800       59.81407       98.86520
C         35.33787       60.07854       98.11016
O         35.13710       61.19716       97.65946
C         36.32712       59.73743      100.37024
O         37.52494       59.53751      101.07250
H         37.44461       57.84572       99.09934
H         37.31651       60.66659       98.70048
H         35.61606       58.89933      100.55927
H         35.86613       60.69127      100.70944
H         37.28373       59.09270      101.92608
N         34.47034       59.05565       97.86326
C         33.24391       59.18098       97.09256
C         33.45299       59.98084       95.81191
O         32.81500       61.01463       95.64655
C         32.14548       59.76177       97.98724
H         34.70953       58.11764       98.21280
H         32.89947       58.15951       96.81414
H         32.01599       59.11227       98.88025
H         32.40332       60.78703       98.32360
H         31.18128       59.78317       97.43536
N         34.31963       59.55819       94.84571
C         34.49033       60.30909       93.60206
C         35.08202       59.48279       92.47890
O         35.57349       58.38588       92.70550
C         35.36166       61.55357       93.83689
H         34.80243       58.65658       94.98241
H         33.47728       60.60208       93.24594
H         35.45752       62.15255       92.90612
H         34.92940       62.20520       94.62288
H         36.38164       61.24520       94.15805
N         34.99495       59.95290       91.19945
C         35.50235       59.27057       90.01375
C         34.88375       57.89092       89.77833
O         35.33222       57.21415       88.86243
C         37.04040       59.17545       90.03947
C         37.72161       60.53503       90.26075
C         39.18627       60.40870       89.95707
O         39.69306       61.10404       89.09195
O         39.92291       59.45140       90.54446
H         34.53116       60.86223       91.04411
H         35.25225       59.89184       89.12400
H         37.36049       58.77803       89.04966
H         37.38570       58.46684       90.82114
H         37.56277       60.86569       91.31032
H         37.28748       61.30054       89.57972
N         33.85351       57.40643       90.53367
C         33.30145       56.07641       90.36748
H         32.23195       56.15053       90.08280
H         33.83576       55.48480       89.59472
H         33.38061       55.52993       91.33123
H         33.41883       57.98854       91.26079
Ca        40.63763       59.63757       92.64437
O         42.81074       60.34237       91.05224
H         42.88047       59.78104       90.24052
H         42.19690       61.07754       90.80306
O         41.43081       55.44389       93.05247
H         41.80290       54.78035       92.41901
H         41.73308       55.13204       93.94231
O         38.66919       57.71761       93.23400
H         37.82799       57.28049       92.95531
H         38.38020       58.52691       93.72762
O         41.59042       57.08474       90.07576
H         42.34808       56.54884       89.73210
H         41.25975       57.57824       89.28361

Ca 1.0



