%chk=apoCaM-CA-Ng.loop3.water4.frame176.chk
%nprocshared=20
%mem=10GB
%nosave
#b3lyp/svp scf=(tight,noincore,xqc) Test 
#IOP(5/87=12) Density=Current Pop=(MK,readradii) iop(6/33=2) iop(6/42=6)

apoCaM-CA-Ng.loop3.water4.frame176 

   0  1 
C         50.54403       30.61408       19.17732
C         49.22712       30.25513       18.55337
O         48.20731       30.50369       19.17633
H         51.39496       30.34935       18.51589
H         50.57542       31.70651       19.37600
H         50.65932       30.07029       20.13886
N         49.17198       29.67787       17.31432
C         47.93812       29.30376       16.61883
C         47.21120       28.11647       17.26242
O         46.12376       27.79418       16.80739
C         46.99614       30.52758       16.44272
C         47.62607       31.68456       15.70544
O         46.89122       32.78439       15.45921
O         48.78267       31.64122       15.31585
H         50.05815       29.51760       16.81155
H         48.20394       28.96285       15.59345
H         46.62908       30.89308       17.42285
H         46.10564       30.21365       15.85779
N         47.75769       27.39432       18.28691
C         47.07999       26.28237       18.95989
C         46.85205       26.59742       20.43455
O         46.36249       25.73228       21.15130
C         47.93273       24.99992       18.86429
C         48.07086       24.44826       17.44035
C         48.85298       23.12192       17.47892
C         48.91683       22.39592       16.12696
N         49.64395       23.15844       15.11327
H         48.69758       27.63696       18.62948
H         46.08248       26.07853       18.51283
H         47.43474       24.20742       19.46677
H         48.93909       25.18610       19.30157
H         48.58742       25.19042       16.79605
H         47.05431       24.25710       17.03179
H         48.34315       22.43129       18.18698
H         49.88286       23.30296       17.85775
H         47.88688       22.17550       15.76852
H         49.43693       21.42451       16.28560
H         50.61008       23.37452       15.45015
H         49.71119       22.58099       14.24408
H         49.13625       24.04142       14.88259
N         47.18089       27.80652       20.96395
C         47.07306       28.13521       22.37450
C         45.64128       27.97707       22.85314
O         44.74396       28.58367       22.28498
C         47.58655       29.57455       22.59413
C         47.74104       29.96639       24.03396
O         48.16626       31.07614       24.29648
O         47.46936       29.10913       25.03603
H         47.55202       28.53306       20.34559
H         47.74657       27.45001       22.93668
H         46.91129       30.29462       22.08135
H         48.59751       29.66267       22.13722
N         45.37047       27.17172       23.91729
C         44.04313       26.95299       24.46583
C         43.37338       28.24603       24.85704
O         42.22546       28.45027       24.48771
H         46.15474       26.69787       24.39095
H         44.14554       26.32243       25.37544
H         43.40914       26.40183       23.73731
N         44.05438       29.18975       25.56393
C         43.47788       30.46948       25.95861
C         44.01430       31.59132       25.07646
O         44.51537       32.58200       25.58366
C         43.69271       30.69374       27.47508
C         45.14520       30.57007       27.88820
N         45.52700       29.66406       28.81910
O         45.98667       31.28420       27.36898
H         45.04314       29.00934       25.78684
H         42.38121       30.47636       25.77535
H         43.09520       29.93889       28.03009
H         43.30774       31.69716       27.75825
H         44.83965       29.04557       29.27275
H         46.51744       29.58247       29.09258
N         43.85777       31.49634       23.72180
C         44.20567       32.47573       22.69592
C         44.85080       33.76428       23.15787
O         44.25759       34.81815       22.98652
H         43.40796       30.64372       23.35865
H         43.26720       32.72993       22.15754
H         44.88977       31.99875       21.96046
N         46.10838       33.75179       23.67759
C         46.85615       34.95840       24.02633
C         47.31508       34.91144       25.46914
O         47.07943       33.92627       26.15056
C         48.07505       35.04069       23.08269
C         47.61247       35.12947       21.65099
C         46.94606       36.28038       21.20033
C         47.81505       34.05795       20.76482
C         46.48271       36.35746       19.88610
C         47.34119       34.13356       19.45152
C         46.67111       35.28506       19.00989
O         46.19958       35.37246       17.75109
H         46.58502       32.84582       23.76594
H         46.22933       35.86755       23.90449
H         48.68814       34.12486       23.23483
H         48.72272       35.91599       23.30375
H         46.78416       37.11741       21.86826
H         48.31951       33.15760       21.09454
H         45.96912       37.24964       19.55095
H         47.48947       33.29585       18.78172
H         46.29047       34.64810       17.11836
N         48.02292       35.95790       25.99027
C         48.58313       35.91045       27.33471
C         47.45435       35.90170       28.35471
O         47.26501       34.88819       29.00487
C         49.60199       37.07431       27.58282
C         50.72554       37.15767       26.50726
C         50.23078       36.97342       28.98556
C         51.61143       35.91456       26.39040
H         48.20183       36.77353       25.39138
H         49.15249       34.95911       27.42463
H         49.05734       38.04176       27.53023
H         51.37615       38.02940       26.73859
H         50.28896       37.35522       25.50788
H         50.78747       36.02367       29.11489
H         50.92089       37.82704       29.15868
H         49.45745       37.00553       29.77045
H         52.37368       36.08358       25.60127
H         52.14813       35.71223       27.33872
H         51.01322       35.02727       26.10077
N         46.66513       36.99240       28.55579
C         45.59235       37.03921       29.54987
C         46.10808       36.75398       30.95321
O         45.49077       35.96274       31.65169
C         44.89874       38.40768       29.52846
O         44.34363       38.62904       28.25861
H         46.84503       37.83436       27.98713
H         44.81687       36.28030       29.29651
H         45.64118       39.19950       29.78493
H         44.08047       38.42568       30.28246
H         44.38224       39.60589       28.09125
N         47.25452       37.33839       31.41580
C         47.80571       37.14932       32.75957
C         48.09685       35.69258       33.14718
O         48.44957       35.47527       34.29951
C         46.87709       37.81407       33.78339
H         47.76113       37.97751       30.78784
H         48.76973       37.70244       32.82408
H         47.33101       37.77483       34.79729
H         46.74301       38.88529       33.51828
H         45.88417       37.32288       33.81663
N         47.99374       34.65045       32.26874
C         48.18084       33.25080       32.64236
C         49.37485       32.64167       31.93152
O         49.98291       33.29988       31.09751
C         46.89954       32.47320       32.31681
H         47.77237       34.84046       31.28929
H         48.37338       33.16394       33.73334
H         46.66922       32.53617       31.23322
H         46.99493       31.40337       32.59626
H         46.04212       32.90697       32.87315
N         49.81070       31.39351       32.28351
C         51.00631       30.74542       31.74584
C         52.18353       31.70540       31.78608
O         52.81581       31.94268       30.76551
C         50.75623       30.15263       30.33809
C         49.70367       29.03147       30.37260
C         49.50470       28.42132       29.01441
O         49.78760       27.12033       28.80925
O         49.07108       29.09443       28.09458
H         49.31939       30.90531       33.04830
H         51.26387       29.88857       32.40790
H         51.70512       29.70531       29.96541
H         50.45456       30.95232       29.63312
H         48.72973       29.42025       30.73800
H         50.05084       28.23689       31.06951
N         52.49990       32.32921       32.95428
C         53.56253       33.30561       33.07520
H         54.10713       33.46149       32.12023
H         53.12733       34.27821       33.38825
H         54.28623       32.96822       33.84458
H         51.94173       32.12710       33.79748
Ca        49.43672       31.61445       26.66087
O         51.89212       32.60916       27.95264
H         51.37060       33.36973       28.31322
H         52.08259       32.85923       27.01415
O         51.22093       29.27679       25.74630
H         51.72764       29.29988       26.59688
H         50.57931       28.53106       25.85867
O         51.06024       32.51511       24.42185
H         50.99166       31.66442       23.91988
H         50.95533       33.22076       23.73641
O         48.22350       32.06261       29.17313
H         48.87506       32.76212       28.91774
H         47.34925       32.45913       28.95003

Ca 1.0



