%chk=apoCaM-CA-Ng.loop1.water3.frame1422.chk
%nprocshared=20
%mem=10GB
%nosave
#b3lyp/svp scf=(tight,noincore,xqc) Test 
#IOP(5/87=12) Density=Current Pop=(MK,readradii) iop(6/33=2) iop(6/42=6)

apoCaM-CA-Ng.loop1.water3.frame1422 

   0  1 
C         88.29987      108.79131        8.32477
C         88.84960      108.33804        7.00634
O         88.23904      107.49486        6.36419
H         87.35603      108.25539        8.56319
H         89.03824      108.59121        9.12895
H         88.08981      109.88052        8.28163
N         90.01858      108.86179        6.54106
C         90.61236      108.48752        5.26461
C         91.92030      107.76604        5.51664
O         92.97089      108.20627        5.06819
C         90.79656      109.73695        4.37448
C         89.50560      110.42050        4.00362
O         89.53895      111.41929        3.30334
O         88.31374      109.94586        4.41536
H         90.51803      109.55197        7.12364
H         89.96645      107.77139        4.71643
H         91.29537      109.43440        3.42742
H         91.45000      110.46730        4.90044
N         91.90877      106.60403        6.22576
C         93.10222      105.79930        6.45865
C         93.72929      105.35943        5.13712
O         94.90216      105.65545        4.95722
C         92.82044      104.61421        7.41481
C         92.46004      105.13570        8.81982
C         92.25917      104.00295        9.83099
C         92.00789      104.57981       11.23343
N         91.81725      103.51580       12.21735
H         91.00436      106.27250        6.59570
H         93.85797      106.42824        6.98298
H         93.74974      104.00994        7.50587
H         92.01857      103.94895        7.03594
H         91.53437      105.74933        8.78059
H         93.29350      105.78000        9.17746
H         93.17224      103.36926        9.86250
H         91.39587      103.37543        9.51911
H         91.10552      105.23099       11.21749
H         92.88068      105.20156       11.53648
H         91.67540      103.94528       13.16036
H         90.97365      102.94863       11.97244
H         92.66213      102.90019       12.25085
N         93.06644      104.72724        4.12138
C         91.65755      104.34620        4.11225
C         90.86912      105.22814        3.16153
O         91.45238      106.01272        2.42449
C         91.51683      102.84672        3.78982
C         92.22077      102.46160        2.51776
O         91.88194      102.93318        1.44404
O         93.26264      101.61164        2.57567
H         93.60361      104.55433        3.25651
H         91.20032      104.51411        5.09814
H         90.44786      102.55697        3.73079
H         91.97778      102.27208        4.62190
N         89.50734      105.22643        3.22231
C         88.69061      106.17602        2.48802
C         88.58132      105.86526        1.02199
O         89.07213      104.84263        0.56824
H         89.03805      104.61214        3.90512
H         89.09368      107.20007        2.63653
H         87.65557      106.15690        2.89259
N         87.91642      106.74034        0.21793
C         87.64079      106.50209       -1.19709
C         86.22888      107.02736       -1.54468
O         85.65649      107.74143       -0.73249
C         88.75290      107.17083       -2.03821
C         90.10757      106.55315       -1.76374
O         91.00159      107.24521       -1.30812
O         90.33800      105.24178       -2.02458
H         87.60497      107.62945        0.63999
H         87.66089      105.41105       -1.38253
H         88.77042      108.25932       -1.80498
H         88.57520      107.07626       -3.11969
N         85.55906      106.73296       -2.70284
C         86.02429      105.82304       -3.73090
C         86.10617      104.40415       -3.23003
O         85.58969      104.09392       -2.16498
H         84.63475      107.16784       -2.85358
H         86.99789      106.15807       -4.11838
H         85.32738      105.82996       -4.59668
N         86.79338      103.48808       -3.95928
C         86.97768      102.10026       -3.55169
C         87.56837      102.00555       -2.14890
O         88.46163      102.76742       -1.81060
C         87.85316      101.36086       -4.59535
C         88.06585       99.88223       -4.24481
O         89.09501      102.00411       -4.72578
H         87.23229      103.80995       -4.83657
H         85.98359      101.60048       -3.54512
H         87.30623      101.41374       -5.56643
H         89.46618      101.73972       -5.60811
H         88.65157       99.39162       -5.04986
H         88.62641       99.76932       -3.29386
H         87.09010       99.36232       -4.14724
N         87.10510      101.04062       -1.30090
C         87.57279      100.77064        0.05510
C         89.05223      100.44332        0.06743
O         89.87253      101.34291       -0.03445
C         87.21785      101.90524        1.05668
C         85.71185      102.26784        1.03590
C         87.68165      101.55955        2.48713
C         84.76545      101.13910        1.45703
H         86.37472      100.40471       -1.65596
H         87.03387       99.86037        0.39431
H         87.76126      102.81631        0.74780
H         85.43219      102.59115        0.01220
H         85.54455      103.13419        1.71238
H         88.77860      101.40164        2.51871
H         87.44390      102.39217        3.18264
H         87.20120      100.62961        2.85491
H         84.85660      100.26373        0.78294
H         84.95853      100.82346        2.50231
H         83.71870      101.50267        1.39975
N         89.45412       99.15555        0.23254
C         90.84702       98.74853        0.33425
C         91.26358       97.82229       -0.80116
O         92.42057       97.42676       -0.79892
C         91.10214       98.12291        1.73125
C         90.21835       96.90869        2.03747
O         90.87175       99.08771        2.72428
H         88.73184       98.42454        0.29797
H         91.52202       99.63075        0.25351
H         92.16216       97.77830        1.79066
H         91.68540       99.65149        2.76717
H         90.48556       96.50006        3.03472
H         89.14661       97.19434        2.08125
H         90.35688       96.11449        1.27587
N         90.41730       97.45185       -1.81598
C         90.85785       96.61911       -2.93828
C         91.91703       97.39053       -3.71345
O         91.57761       98.33426       -4.41426
C         89.65014       96.22058       -3.82300
C         90.04704       95.32823       -5.00219
O         88.71757       95.53542       -3.02555
H         89.43960       97.77412       -1.80220
H         91.29292       95.68520       -2.51621
H         89.18879       97.15436       -4.21940
H         87.83079       95.63699       -3.46048
H         90.50985       94.38719       -4.63797
H         89.14033       95.07408       -5.59280
H         90.75802       95.85279       -5.67372
N         93.23822       97.13141       -3.47902
C         94.36276       97.97360       -3.89151
C         94.21553       99.39728       -3.36579
O         93.13804       99.78110       -2.94919
C         94.58485       98.00533       -5.41415
C         94.77316       96.61147       -6.02249
C         95.08912       96.73098       -7.51922
C         95.18636       95.35548       -8.18742
N         95.50195       95.49212       -9.60946
H         93.47280       96.33896       -2.86166
H         95.27358       97.53877       -3.41982
H         95.49951       98.60653       -5.61823
H         93.72677       98.50553       -5.91251
H         93.83847       96.02671       -5.88068
H         95.61002       96.08297       -5.51434
H         96.05310       97.27301       -7.64562
H         94.28572       97.31304       -8.02134
H         94.21294       94.82755       -8.07707
H         95.97595       94.74810       -7.69202
H         94.77223       96.06901      -10.08823
H         96.43857       95.94296       -9.72680
H         95.52470       94.54401      -10.04917
N         95.28470      100.23607       -3.33152
C         95.20424      101.63989       -2.91516
C         94.40586      101.83157       -1.59146
O         94.38928      103.15933       -1.12815
C         96.61641      102.27823       -2.85875
C         97.28836      102.33878       -4.24092
C         98.66801      102.92083       -4.13703
O         99.60894      102.29800       -3.40076
O         98.94974      103.94824       -4.73218
H         96.19872       99.84203       -3.59755
H         94.61734      102.20275       -3.67193
H         97.26324      101.70911       -2.16176
H         96.53671      103.32198       -2.48343
H         96.66310      102.96047       -4.91884
H         97.38666      101.32991       -4.68842
N         94.56958      100.84423       -0.50798
C         95.93722      100.42933       -0.20519
H         96.58340      101.30103        0.02303
H         95.92133       99.75919        0.68119
H         96.35147       99.82665       -1.03834
H         94.14074      101.23976        0.35561
Ca        92.32105      104.12921       -1.61125
O         92.02232      104.14358       -4.68094
H         92.69150      103.41414       -4.67468
H         92.49027      104.91043       -4.26461
O         93.49040      106.41482       -0.26440
H         93.51434      106.48178       -1.25255
H         94.43951      106.32659       -0.00236
O         91.21264      101.44510       -2.33089
H         91.68595      101.92355       -3.05332
H         90.31178      101.28239       -2.69511

Ca 1.0



