%chk=apoCaM-CA-Ng.loop4.water5.frame915.chk
%nprocshared=20
%mem=10GB
%nosave
#b3lyp/svp scf=(tight,noincore,xqc) Test 
#IOP(5/87=12) Density=Current Pop=(MK,readradii) iop(6/33=2) iop(6/42=6)

apoCaM-CA-Ng.loop4.water5.frame915 

   -3  1 
C          8.30973      -14.13799       22.97167
C          8.15357      -15.18288       21.90530
O          7.29688      -15.00846       21.05672
H          8.58017      -13.16919       22.50108
H          7.35344      -14.01900       23.52116
H          9.10121      -14.41023       23.70012
N          8.94053      -16.30074       21.91118
C          8.92793      -17.39888       20.94029
C          9.49906      -16.98878       19.58466
O         10.55846      -17.48686       19.23279
C          7.54493      -18.07667       20.80632
C          7.00897      -18.63406       22.10028
O          7.69877      -18.52329       23.25262
O          5.93089      -19.20605       22.10420
H          9.60940      -16.40179       22.69003
H          9.62395      -18.17600       21.33450
H          7.64264      -18.92268       20.09378
H          6.79868      -17.36753       20.39390
N          8.83586      -16.13820       18.75098
C          9.28158      -15.70593       17.42725
C          9.59849      -16.87580       16.48569
O         10.70164      -16.93236       15.96315
C         10.37950      -14.59081       17.50128
C         11.72616      -15.03392       18.13220
C          9.80448      -13.36371       18.24034
C         12.84361      -14.00594       17.93968
H          7.90863      -15.80320       19.02751
H          8.42010      -15.19242       16.94079
H         10.57801      -14.28633       16.44880
H         12.08528      -15.96347       17.65028
H         11.60277      -15.22652       19.21792
H          9.59869      -13.60742       19.30500
H         10.49514      -12.49942       18.20052
H          8.85570      -13.03446       17.76530
H         12.62090      -13.05185       18.45595
H         13.78834      -14.40597       18.36371
H         13.00008      -13.81109       16.85677
N          8.67768      -17.82505       16.13614
C          7.31313      -17.89454       16.64523
C          7.01707      -19.24375       17.26770
O          7.77991      -20.18698       17.10722
C          6.28999      -17.51457       15.55234
C          6.25644      -18.39757       14.33058
O          7.05164      -19.47772       14.21165
O          5.48365      -18.12648       13.42576
H          8.96879      -18.53152       15.44341
H          7.15748      -17.15443       17.43768
H          6.51825      -16.47770       15.22258
H          5.27139      -17.50766       15.99628
N          5.89837      -19.37603       18.02638
C          5.44885      -20.61739       18.62837
C          4.04998      -20.87624       18.14945
O          3.80752      -21.88929       17.50903
H          5.32826      -18.53277       18.18586
H          5.43893      -20.51349       19.73340
H          6.11566      -21.46830       18.36611
N          3.08077      -19.95069       18.40222
C          1.72044      -20.03883       17.89557
C          1.40530      -18.91773       16.90535
O          0.38898      -19.02277       16.23711
C          0.72556      -20.08173       19.07604
C          0.90256      -18.94813       20.05850
O          1.23822      -19.21607       21.33491
O          0.75539      -17.78897       19.71420
H          3.32918      -19.12536       18.96797
H          1.59704      -20.98060       17.31659
H          0.89644      -21.03028       19.62942
H         -0.31824      -20.09360       18.69621
N          2.22382      -17.84029       16.71246
C          1.97784      -16.82113       15.69980
C          0.73042      -15.97287       15.89641
O          0.51106      -15.11240       15.05781
H          3.08958      -17.74434       17.25862
H          1.92641      -17.31340       14.70451
H          2.84321      -16.12258       15.68554
N         -0.12413      -16.12550       16.95293
C         -1.32092      -15.31456       17.17218
C         -0.98457      -13.84138       17.40825
O         -1.87120      -13.01031       17.26753
C         -2.34156      -15.46790       16.01227
C         -2.70859      -16.91961       15.65813
C         -3.30774      -17.68215       16.81360
N         -2.76124      -18.84863       17.22893
O         -4.30854      -17.25358       17.36769
H          0.06390      -16.84827       17.65090
H         -1.83113      -15.67854       18.09193
H         -1.94928      -14.98692       15.09243
H         -3.27519      -14.92792       16.28753
H         -1.80786      -17.44261       15.27186
H         -3.45601      -16.89161       14.83611
H         -1.93851      -19.24337       16.75814
H         -3.17234      -19.37496       18.01304
N          0.26229      -13.44585       17.80662
C          0.64440      -12.04185       17.96845
C          0.91519      -11.65496       19.41312
O          1.14325      -10.46949       19.62560
C          1.86663      -11.68173       17.06724
C          3.07723      -12.60646       17.29182
C          1.48109      -11.66856       15.58487
H          0.96929      -14.16483       18.00967
H         -0.19615      -11.37797       17.66827
H          2.18376      -10.64275       17.30992
H          2.85900      -13.64759       16.97322
H          3.94369      -12.25404       16.69352
H          3.37449      -12.60922       18.35916
H          1.14284      -12.66668       15.24893
H          0.66394      -10.93516       15.41453
H          2.35134      -11.35657       14.96794
N          0.86031      -12.52919       20.46299
C          1.05740      -12.06735       21.83998
C          0.75640      -13.12792       22.89238
O          0.54955      -14.29166       22.57208
C          2.50704      -11.54132       22.06008
C          3.53917      -12.63885       21.93819
N          4.32626      -12.96447       22.99012
O          3.66539      -13.24019       20.88281
H          0.62539      -13.51621       20.28371
H          0.33418      -11.23833       22.01296
H          2.57753      -11.08020       23.06762
H          2.76516      -10.73686       21.34467
H          4.23992      -12.47193       23.89106
H          5.02400      -13.71733       22.90442
N          0.73989      -12.75733       24.20277
C          0.60597      -13.67800       25.32976
C          0.51190      -12.88912       26.62717
O          1.20075      -11.88547       26.76388
C          1.83056      -14.62228       25.38232
C          1.81536      -15.52749       26.59338
C          0.77194      -16.44620       26.79892
C          2.85184      -15.44704       27.53731
C          0.76229      -17.25916       27.93743
C          2.84226      -16.26216       28.67174
C          1.79822      -17.16737       28.87884
O          1.80194      -17.94119       29.98277
H          0.85261      -11.75040       24.40137
H         -0.32533      -14.27477       25.21399
H          2.74956      -13.99553       25.39495
H          1.87141      -15.25442       24.47171
H         -0.03713      -16.52758       26.08437
H          3.66661      -14.74895       27.39583
H         -0.05088      -17.95777       28.08797
H          3.64643      -16.18848       29.39258
H          1.09756      -18.57830       30.16775
N         -0.28498      -13.31951       27.64870
C         -0.43094      -12.57987       28.89434
C          0.20505      -13.34852       30.04691
O         -0.39231      -14.31824       30.49420
C         -1.92423      -12.31665       29.17969
C         -2.57578      -11.43449       28.10721
C         -4.04539      -11.27842       28.37369
O         -4.85052      -12.35887       28.36423
O         -4.52014      -10.17448       28.58620
H         -0.79814      -14.20875       27.54590
H          0.05115      -11.59768       28.80119
H         -2.03325      -11.81279       30.16571
H         -2.45570      -13.29452       29.22669
H         -2.45436      -11.88861       27.10099
H         -2.07881      -10.43926       28.10965
N          1.42456      -13.02911       30.58592
C          2.34559      -12.03592       30.03524
C          1.85224      -10.60850       30.11463
O          1.24974      -10.21834       31.10464
C          3.74439      -12.06922       30.68199
C          4.46191      -13.41039       30.47845
C          5.94412      -13.24424       30.63197
O          6.54297      -12.49209       29.87848
O          6.64224      -13.94496       31.53881
H          1.75798      -13.60840       31.37215
H          2.51449      -12.29301       28.96689
H          3.71965      -11.80122       31.76195
H          4.33250      -11.28555       30.15194
H          4.31004      -13.75801       29.43862
H          4.05610      -14.17732       31.17311
N          2.17206       -9.75371       29.09986
C          1.83252       -8.34896       29.07764
H          1.25364       -8.04037       29.97127
H          2.76980       -7.75317       29.03732
H          1.23642       -8.13281       28.16672
H          2.71666      -10.11008       28.29912
Ca         8.87635      -13.66149       31.37356
O         11.24055      -11.95270       32.06155
H         11.97356      -11.75856       31.42509
H         11.26276      -11.20211       32.70667
O          8.99945      -13.63905       34.20532
H          8.72171      -12.83599       34.71263
H          9.89794      -13.86241       34.55551
O          8.03859      -10.62143       31.83183
H          8.27401      -10.18758       32.68993
H          8.80965      -10.43581       31.23889
O         11.04917      -15.50021       32.07866
H         11.08688      -15.70678       31.11086
H         10.65068      -16.30767       32.49010
O          7.93191      -16.19424       29.89718
H          7.89249      -16.55645       30.81812
H          7.00302      -16.26596       29.56180

Ca 1.0



