%chk=apoCaM-CA-Ng.loop2.water5.frame512.chk
%nprocshared=20
%mem=10GB
%nosave
#b3lyp/svp scf=(tight,noincore,xqc) Test 
#IOP(5/87=12) Density=Current Pop=(MK,readradii) iop(6/33=2) iop(6/42=6)

apoCaM-CA-Ng.loop2.water5.frame512 

   -2  1 
C         65.22692       81.53085       44.63492
C         64.03182       82.43853       44.65214
O         64.08709       83.48770       44.02667
H         66.10105       82.08370       45.04066
H         65.06267       80.63066       45.26326
H         65.45224       81.20930       43.59688
N         62.91386       82.10328       45.35868
C         61.75960       82.98302       45.49910
C         60.54912       82.36494       44.82425
O         60.29648       81.17965       44.99621
C         61.47739       83.23261       46.99029
C         60.49196       84.35169       47.23187
O         60.22502       85.16217       46.35702
O         59.96528       84.51482       48.45860
H         62.88712       81.19232       45.84323
H         61.97813       83.96664       45.02895
H         62.41385       83.51332       47.51746
H         61.09928       82.28974       47.44147
N         59.77135       83.13126       44.01313
C         58.69296       82.61768       43.17880
C         59.10076       82.85089       41.73092
O         60.03400       83.61267       41.50854
C         57.38500       83.33886       43.54512
H         59.99240       84.13574       43.93233
H         58.57193       81.52277       43.33316
H         56.53328       83.04379       42.90407
H         57.11078       83.10707       44.59709
H         57.50974       84.43827       43.44924
N         58.55615       82.20314       40.66550
C         57.47033       81.22741       40.69569
C         57.96671       79.78402       40.77797
O         59.09810       79.49695       40.42183
C         56.53706       81.47391       39.48034
C         57.20732       81.38892       38.12051
O         56.57676       81.69317       37.12153
O         58.48887       81.00083       37.98279
H         58.99053       82.42212       39.75973
H         56.86584       81.37682       41.60709
H         56.13070       82.50386       39.58099
H         55.68430       80.76292       39.49206
N         57.12385       78.81571       41.24421
C         57.43070       77.38959       41.33345
C         58.32823       77.01508       42.49734
O         58.85793       77.90499       43.14793
H         56.17250       79.10011       41.52450
H         57.83587       77.01267       40.37142
H         56.46791       76.88040       41.52861
N         58.51457       75.71477       42.89299
C         57.90253       74.52183       42.29433
C         58.94802       73.48247       41.87426
O         58.55635       72.39799       41.46301
C         56.94033       73.89609       43.33778
C         55.75329       74.78752       43.60396
N         54.85675       75.04133       42.62097
O         55.58770       75.26740       44.71533
H         59.09356       75.55639       43.73481
H         57.32086       74.76371       41.38309
H         57.49777       73.70249       44.28253
H         56.53585       72.92340       42.98148
H         54.97019       74.62372       41.68539
H         54.04049       75.64570       42.79451
N         60.28744       73.72450       41.95818
C         61.30708       72.72148       41.68650
C         61.43268       72.25575       40.24708
O         61.94981       71.16644       40.04760
H         60.62052       74.63899       42.29164
H         61.16732       71.85051       42.36282
H         62.29698       73.15823       41.94058
N         61.12201       73.06366       39.19544
C         61.48215       72.75713       37.80248
C         62.37606       73.87980       37.26925
O         62.68930       74.78505       38.03054
C         60.20343       72.53453       36.95279
C         59.49994       71.23070       37.35717
O         59.32136       73.61686       37.09758
H         60.67119       73.97254       39.38795
H         62.08412       71.82556       37.73165
H         60.49359       72.41995       35.88206
H         58.81213       73.69210       36.24742
H         59.27822       71.20652       38.44438
H         58.54714       71.11518       36.79823
H         60.14884       70.36235       37.10695
N         62.85388       73.88579       35.98651
C         63.66796       74.98473       35.45734
C         62.97444       75.62859       34.25656
O         62.75053       74.95743       33.25864
C         65.11803       74.51091       35.11090
C         65.95150       75.69130       34.53253
C         65.79083       73.93253       36.37185
C         67.39203       75.35227       34.16119
H         62.63696       73.09345       35.36414
H         63.78889       75.76996       36.22983
H         65.07336       73.71162       34.33939
H         65.99683       76.52292       35.25702
H         65.46045       76.04355       33.60252
H         66.82226       73.58713       36.15985
H         65.82917       74.69344       37.18185
H         65.23304       73.04606       36.73652
H         67.86760       76.23401       33.68714
H         67.99316       75.12096       35.06232
H         67.41648       74.50537       33.44688
N         62.68233       76.96649       34.27996
C         62.17854       77.74222       33.16041
C         63.29410       78.52949       32.46526
O         63.02391       79.06835       31.39967
C         61.14212       78.79720       33.64119
C         59.93405       78.25710       34.36563
O         59.45087       78.81430       35.50257
O         59.29468       77.35728       33.85436
H         62.88985       77.49406       35.11828
H         61.73173       77.04868       32.41234
H         60.75507       79.30276       32.73055
H         61.64382       79.57463       34.26377
N         64.55314       78.65862       32.99159
C         65.61137       79.42933       32.34831
C         66.35681       80.29565       33.39000
O         67.55825       80.12634       33.54599
C         66.54878       78.43126       31.63192
C         67.41865       79.06248       30.57152
C         66.87027       79.34943       29.30723
C         68.77949       79.32132       30.80173
C         67.67141       79.87969       28.29176
C         69.57309       79.87071       29.78836
C         69.02131       80.14394       28.53331
H         64.79174       78.18185       33.86445
H         65.17558       80.08646       31.56392
H         65.94716       77.65147       31.11340
H         67.15222       77.89470       32.38687
H         65.82783       79.13820       29.10022
H         69.22534       79.10454       31.76340
H         67.24706       80.07949       27.31567
H         70.61908       80.07707       29.97296
H         69.64038       80.55544       27.74634
N         65.72871       81.25017       34.14879
C         66.42290       82.16196       35.06759
C         67.11755       81.49497       36.25882
O         68.03842       82.07359       36.81735
C         65.29528       83.07140       35.58076
C         64.32113       83.06720       34.41695
C         64.33124       81.59798       34.02387
H         67.15172       82.74670       34.46312
H         64.76643       82.57115       36.42551
H         65.63074       84.07514       35.91975
H         63.31196       83.47010       34.64724
H         64.76854       83.65431       33.58319
H         63.75410       80.99623       34.76277
H         63.91450       81.46709       33.00459
N         66.64340       80.31966       36.75352
C         67.16088       79.62675       37.93861
C         68.60125       79.22540       37.70789
O         69.44172       79.51353       38.54788
C         66.34784       78.36480       38.37612
C         64.83598       78.59857       38.57224
C         64.09654       78.52125       37.29076
O         62.79795       78.79903       37.26165
O         64.64816       78.14407       36.27782
H         65.85702       79.94461       36.24534
H         67.09422       80.32256       38.80473
H         66.74780       78.06341       39.36755
H         66.50524       77.49565       37.69899
H         64.64677       79.56932       39.07815
H         64.39255       77.78761       39.18921
N         68.96201       78.61896       36.53994
C         70.33315       78.30360       36.19493
H         71.02410       78.41565       37.05672
H         70.39963       77.26202       35.81755
H         70.66260       78.99380       35.38938
H         68.24271       78.44369       35.82152
Ca        60.67190       79.27696       37.29324
O         61.68925       80.72566       39.89429
H         62.23428       81.48433       40.21929
H         61.50787       80.19121       40.70719
O         61.46149       77.47459       39.83570
H         62.09368       77.64102       40.57771
H         61.91981       76.80020       39.27805
O         57.59462       78.03756       37.72320
H         56.64336       78.25889       37.87846
H         57.59981       77.58522       36.84287
O         61.42487       81.81395       36.81624
H         60.50848       82.17598       36.72043
H         61.94465       82.53746       37.24323
O         60.06367       76.56825       37.36787
H         60.61476       75.76198       37.44143
H         59.83808       76.58400       36.40989

Ca 1.0



