%chk=apoCaM-CA-Ng.loop1.water4.frame244.chk
%nprocshared=20
%mem=10GB
%nosave
#b3lyp/svp scf=(tight,noincore,xqc) Test 
#IOP(5/87=12) Density=Current Pop=(MK,readradii) iop(6/33=2) iop(6/42=6)

apoCaM-CA-Ng.loop1.water4.frame244 

   0  1 
C         54.25720       15.68954      115.03723
C         53.62819       14.39713      114.59624
O         52.45572       14.17877      114.86362
H         55.32150       15.75250      114.72118
H         53.71341       16.54449      114.58427
H         54.21792       15.76932      116.14261
N         54.35921       13.49389      113.89118
C         53.82962       12.23385      113.37858
C         53.70374       11.15530      114.46695
O         53.48977       10.01384      114.10176
C         54.77298       11.69629      112.26593
C         54.91517       12.62478      111.08385
O         54.54370       12.26424      109.97787
O         55.48767       13.83571      111.22113
H         55.33368       13.74307      113.66352
H         52.84608       12.40096      112.88522
H         54.34788       10.75238      111.87687
H         55.78002       11.47655      112.68236
N         53.88435       11.39505      115.79935
C         54.07550       10.31924      116.77808
C         53.03361       10.31532      117.89260
O         52.80728       11.37890      118.45275
C         55.45970       10.53170      117.42199
C         56.62793       10.49960      116.41999
C         56.87903        9.09748      115.84932
C         58.12154        9.08715      114.95124
N         58.46494        7.72333      114.54936
H         54.01037       12.35918      116.13444
H         54.07614        9.34212      116.28565
H         55.63989        9.77015      118.21176
H         55.46196       11.53079      117.91288
H         57.53971       10.80799      116.97518
H         56.46644       11.23523      115.60140
H         56.00690        8.74225      115.26021
H         57.04751        8.40399      116.70134
H         58.98490        9.51730      115.50538
H         57.93375        9.71486      114.05103
H         57.67183        7.27409      114.04354
H         59.30023        7.75060      113.92158
H         58.69579        7.15218      115.39455
N         52.41688        9.18161      118.37921
C         52.54138        7.79715      117.89805
C         53.98069        7.29821      117.91593
O         54.55838        7.08967      116.85906
C         51.78776        7.60544      116.56720
C         50.31051        7.82648      116.76028
O         49.81974        8.08576      117.99092
O         49.55760        7.79280      115.80193
H         51.79819        9.31061      119.19547
H         51.99172        7.11690      118.58251
H         51.90367        6.56996      116.21075
H         52.17279        8.29718      115.79441
N         54.62641        7.00470      119.08228
C         53.94563        7.00186      120.37085
C         54.79996        6.48251      121.51527
O         55.99674        6.30363      121.34257
H         55.60191        6.67708      119.01834
H         53.10311        6.28586      120.27688
H         53.55567        8.01162      120.61922
N         54.25304        6.13170      122.71922
C         52.82081        6.18542      123.01255
C         52.19280        4.82147      122.79658
O         52.91035        3.84868      122.60034
C         52.53983        6.74051      124.42941
C         53.03347        5.85714      125.55080
O         52.15287        5.32323      126.41892
O         54.22491        5.64270      125.70315
H         54.88012        5.68160      123.40074
H         52.32189        6.87394      122.30138
H         51.44050        6.85562      124.54720
H         52.99382        7.74908      124.53332
N         50.83643        4.68592      122.76922
C         50.17941        3.40892      122.54274
C         50.43960        2.79887      121.17246
O         49.98958        1.68024      120.96773
H         50.24325        5.51439      122.92973
H         49.07982        3.53503      122.65224
H         50.51975        2.69973      123.32767
N         51.12493        3.45102      120.18319
C         51.39782        2.86442      118.87301
C         52.89523        2.84565      118.62366
O         53.51578        3.90085      118.65661
C         50.70219        3.67205      117.75474
C         49.18418        3.72167      117.95026
O         50.98332        3.06511      116.51864
H         51.45710        4.41241      120.34085
H         51.00741        1.82397      118.81594
H         51.10230        4.71289      117.76623
H         50.80533        3.74134      115.81478
H         48.72158        4.29624      117.12007
H         48.75979        2.69497      117.95237
H         48.92742        4.22589      118.90504
N         53.54036        1.67909      118.33107
C         54.97095        1.62709      118.03201
C         55.34895        2.47947      116.82646
O         56.49983        2.88557      116.75637
C         55.49966        0.17456      117.79557
C         54.76623       -0.53535      116.61999
C         55.43273       -0.64914      119.09222
C         55.44083       -1.82940      116.16624
H         52.98969        0.80905      118.32167
H         55.51320        2.04963      118.90918
H         56.57747        0.26463      117.52843
H         54.76088        0.12259      115.73055
H         53.71116       -0.75207      116.88862
H         55.99903       -0.13285      119.89649
H         54.38465       -0.79091      119.42654
H         55.90223       -1.64427      118.95651
H         56.47865       -1.61732      115.83091
H         55.45806       -2.59099      116.96968
H         54.87698       -2.25148      115.30681
N         54.47588        2.69916      115.79730
C         54.86118        3.39487      114.56933
C         54.00552        4.62838      114.33205
O         53.07632        4.87937      115.07644
C         54.85312        2.41471      113.36993
C         53.48039        1.79071      113.09335
O         55.78501        1.39249      113.61933
H         53.52314        2.31612      115.86210
H         55.90318        3.77214      114.66033
H         55.16649        2.98330      112.46381
H         56.13766        1.09227      112.74111
H         52.72604        2.57857      112.88970
H         53.54899        1.13010      112.20330
H         53.14136        1.16951      113.94783
N         54.34286        5.48695      113.32815
C         53.72934        6.79876      113.10912
C         52.24955        6.76884      112.71532
O         51.67218        5.70744      112.52383
C         54.54984        7.58059      112.03384
C         54.53374        6.93658      110.64097
O         55.87620        7.71500      112.46845
H         55.16329        5.23345      112.76132
H         53.80564        7.36646      114.06181
H         54.11187        8.58648      111.92111
H         56.21622        8.58548      112.13099
H         53.49561        6.85200      110.25908
H         55.10886        7.57554      109.93709
H         55.00042        5.93119      110.64746
N         51.61133        7.96211      112.51292
C         50.28478        8.15278      111.94737
C         49.44916        9.19492      112.70747
O         48.33755        9.45924      112.27114
C         50.46886        8.62035      110.47818
C         51.23970        9.95976      110.34541
C         51.42064       10.43300      108.89791
C         52.33213        9.50968      108.07229
N         52.52829       10.04585      106.72618
H         52.15030        8.81551      112.65593
H         49.73115        7.18812      111.92683
H         49.47199        8.72790      109.99758
H         51.01803        7.81929      109.94173
H         52.25098        9.88805      110.79230
H         50.67842       10.74910      110.88929
H         51.89574       11.43841      108.93381
H         50.42767       10.53518      108.41050
H         51.88678        8.49617      107.99128
H         53.32141        9.41967      108.57571
H         52.97710       10.98946      106.77583
H         53.15315        9.40274      106.18847
H         51.60911       10.11761      106.23237
N         49.91147        9.85720      113.81373
C         49.16795       10.94156      114.45719
C         49.07332       12.12628      113.51862
O         50.10324       12.65780      113.12682
C         49.85989       11.36192      115.77559
C         49.22251       12.56510      116.50788
C         47.73269       12.47463      116.76040
O         47.00075       13.34033      116.30861
O         47.18318       11.48069      117.48605
H         50.82304        9.60063      114.21237
H         48.15397       10.57506      114.72447
H         50.92268       11.62230      115.57741
H         49.87205       10.48735      116.44460
H         49.41357       13.47821      115.90265
H         49.74886       12.69718      117.47777
N         47.85648       12.60271      113.13459
C         47.68684       13.75428      112.27220
H         47.10052       14.52883      112.81000
H         48.65549       14.20276      111.96639
H         47.13383       13.45264      111.35895
H         47.00189       12.13793      113.47620
Ca        48.37633        9.75926      118.24904
O         46.18674        8.96318      116.19276
H         47.07568        8.52954      116.19484
H         46.11416        9.36795      115.29283
O         46.81898        6.52588      118.31978
H         45.84082        6.38168      118.37109
H         47.05482        6.28458      117.38905
O         45.31995        8.36062      120.73717
H         44.71217        7.85549      120.14069
H         44.74267        9.05149      121.14939
O         44.61219       10.48125      118.57109
H         44.60739       11.04558      117.75768
H         44.45298       11.11607      119.31399

Ca 1.0



