%chk=apoCaM-CA-Ng.loop1.water2.frame880.chk
%nprocshared=20
%mem=10GB
%nosave
#b3lyp/svp scf=(tight,noincore,xqc) Test 
#IOP(5/87=12) Density=Current Pop=(MK,readradii) iop(6/33=2) iop(6/42=6)

apoCaM-CA-Ng.loop1.water2.frame880 

   0  1 
C         91.57779       72.66321       24.63462
C         92.02063       72.92887       26.04343
O         91.19681       72.86267       26.94396
H         90.80671       73.40086       24.33422
H         92.42831       72.72446       23.92229
H         91.15245       71.63906       24.57584
N         93.32471       73.21287       26.30797
C         93.85591       73.39388       27.65522
C         94.44958       74.78865       27.84856
O         94.38887       75.60437       26.93862
C         94.83416       72.24272       27.97280
C         96.04896       72.15957       27.09280
O         96.25703       73.03396       26.09025
O         96.92220       71.35568       27.37435
H         93.97503       73.26593       25.51184
H         93.04073       73.31316       28.40675
H         94.28945       71.27695       27.90955
H         95.18254       72.35088       29.02181
N         94.98735       75.14111       29.05454
C         95.39920       76.49439       29.40992
C         96.89558       76.55882       29.65872
O         97.32744       76.85685       30.76449
C         94.57795       76.95183       30.63895
C         93.08327       77.05829       30.28989
C         92.19829       77.50652       31.46171
C         92.19350       76.50060       32.62400
N         91.21805       76.88518       33.64283
H         95.05184       74.43124       29.79809
H         95.19722       77.21731       28.58694
H         94.92281       77.94652       30.98859
H         94.74418       76.22802       31.46362
H         92.70771       76.08043       29.92022
H         92.96851       77.80388       29.47182
H         91.16130       77.59627       31.07073
H         92.51906       78.50738       31.82574
H         93.20130       76.45055       33.08893
H         91.93094       75.49024       32.23885
H         90.25509       76.87828       33.23390
H         91.25384       76.19494       34.42742
H         91.43760       77.83738       34.01492
N         97.74579       76.40226       28.60673
C         99.17071       76.69742       28.68349
C         99.75744       76.92405       27.29323
O        100.13117       75.95811       26.64607
C        100.00356       75.72154       29.55915
C         99.94889       74.23035       29.31667
O        100.59170       73.50978       30.06298
O         99.12768       73.63632       28.43703
H         97.32532       76.23296       27.68299
H         99.25547       77.66494       29.20693
H         99.67492       75.84979       30.61169
H        101.06775       76.03718       29.50707
N         99.91127       78.17437       26.74976
C         99.49165       79.42582       27.37425
C         97.98386       79.60770       27.40274
O         97.25653       78.80595       26.83482
H        100.37443       78.24751       25.83049
H         99.89077       80.27999       26.78679
H         99.93483       79.51148       28.38752
N         97.45375       80.68152       28.05704
C         96.02559       80.99941       28.09775
C         95.78273       82.44839       27.70807
O         96.61311       83.29501       28.01160
C         95.42617       80.71278       29.48936
C         96.05164       81.48046       30.62400
O         97.22531       81.31363       30.91388
O         95.30121       82.32227       31.35997
H         98.10407       81.29795       28.56692
H         95.46162       80.34690       27.39462
H         95.53767       79.63326       29.69745
H         94.33707       80.94136       29.45820
N         94.61505       82.82356       27.10632
C         94.30848       84.21718       26.81322
C         95.21376       84.82909       25.76496
O         95.21721       86.04701       25.64859
H         93.89952       82.11075       26.89922
H         94.39875       84.79241       27.76043
H         93.26075       84.31978       26.45750
N         95.97739       84.05817       24.94046
C         96.89255       84.59801       23.94093
C         98.30174       84.10590       24.22865
O         98.50846       83.43203       25.23235
C         96.39426       84.25808       22.50700
C         96.33788       82.76006       22.20166
O         95.11712       84.80799       22.31129
H         95.91152       83.03200       25.01257
H         96.93165       85.70842       23.99477
H         97.08311       84.69921       21.75217
H         95.24359       85.78267       22.16202
H         96.01215       82.61456       21.14885
H         97.34010       82.29792       22.32061
H         95.61040       82.24460       22.86067
N         99.32472       84.39370       23.37730
C        100.69678       83.94955       23.59800
C        101.71649       85.08191       23.39299
O        102.85468       84.90240       23.79885
C        100.95221       82.65589       22.76155
C        102.33292       81.99251       22.98727
C        100.73986       82.89520       21.25787
C        102.57752       81.55107       24.43161
H         99.09524       84.87665       22.50146
H        100.79183       83.66327       24.66693
H        100.18370       81.91203       23.07571
H        103.15005       82.66751       22.65910
H        102.38360       81.07491       22.35988
H        101.46967       83.63391       20.86774
H        100.85547       81.94035       20.70173
H         99.71038       83.25477       21.05290
H        103.55565       81.02846       24.49283
H        102.61395       82.41784       25.12097
H        101.78213       80.84880       24.76195
N        101.39030       86.27648       22.80087
C        102.30110       87.41357       22.70355
C        102.64507       87.66681       21.24907
O        101.74035       87.75876       20.43084
C        101.64718       88.68184       23.29963
C        101.08602       88.44487       24.70594
O        102.61281       89.70287       23.34099
H        100.45682       86.42670       22.40415
H        103.23443       87.21823       23.27751
H        100.79902       88.98849       22.64300
H        102.12793       90.56146       23.45086
H        101.88121       88.10233       25.39922
H        100.64328       89.38727       25.09283
H        100.27523       87.68546       24.67298
N        103.94377       87.81537       20.86450
C        104.35600       88.00421       19.47786
C        105.30657       86.88140       19.11084
O        105.02096       86.13974       18.18171
C        104.96488       89.41590       19.26641
C        105.25113       89.67675       17.77899
O        106.13653       89.58132       20.02228
H        104.67241       87.79360       21.59324
H        103.47143       87.94799       18.80418
H        104.20507       90.15728       19.60580
H        106.39647       90.53720       19.95320
H        106.00290       88.96077       17.38570
H        104.31505       89.58008       17.18757
H        105.63742       90.70880       17.63973
N        106.44074       86.67865       19.84078
C        107.37169       85.58365       19.61686
C        107.41316       84.68057       20.83877
O        106.78727       84.97737       21.84748
C        108.77059       86.13277       19.23891
C        109.36233       87.13064       20.25363
C        110.75177       87.60852       19.81159
C        111.28813       88.69803       20.75175
N        112.61239       89.15150       20.32699
H        106.63890       87.30424       20.63234
H        107.02581       84.94943       18.77183
H        108.68182       86.65355       18.26051
H        109.47435       85.28403       19.10166
H        109.43612       86.66189       21.25898
H        108.70180       88.02062       20.31660
H        110.68717       88.03079       18.78476
H        111.45101       86.74386       19.79943
H        111.34935       88.30482       21.79054
H        110.58888       89.56460       20.74560
H        112.56866       89.53385       19.35422
H        112.93885       89.90767       20.97129
H        113.29223       88.35771       20.36401
N        108.12361       83.52107       20.78902
C        108.20643       82.57728       21.89477
C        106.83203       82.03690       22.29796
O        106.52486       82.12050       23.47885
C        109.21943       81.45966       21.55549
C        109.44825       80.48914       22.72259
C        110.56080       79.53072       22.40595
O        111.66551       79.50528       23.17630
O        110.47371       78.77494       21.45121
H        108.62959       83.29918       19.91833
H        108.63912       83.11016       22.77264
H        110.18924       81.95525       21.32492
H        108.91494       80.89055       20.65665
H        108.51973       79.91622       22.93318
H        109.72387       81.06542       23.63230
N        105.92781       81.48167       21.43717
C        106.08191       81.39832       20.00107
H        106.16049       82.41457       19.56462
H        106.95748       80.78654       19.72387
H        105.18146       80.92018       19.55929
H        105.04134       81.12730       21.82942
Ca        98.07796       74.17539       26.54912
O         97.39528       76.62130       24.81875
H         96.61391       76.24510       25.29638
H         97.41345       76.13795       23.95545
O         99.27587       70.78615       25.55306
H         98.91527       70.10712       26.17692
H         99.20240       70.36345       24.66091

Ca 1.0



