%chk=apoCaM-CA-Ng.loop4.water5.frame826.chk
%nprocshared=20
%mem=10GB
%nosave
#b3lyp/svp scf=(tight,noincore,xqc) Test 
#IOP(5/87=12) Density=Current Pop=(MK,readradii) iop(6/33=2) iop(6/42=6)

apoCaM-CA-Ng.loop4.water5.frame826 

   -3  1 
C         70.51678       87.50967       57.69404
C         71.71221       87.34082       56.80294
O         72.70796       88.01663       57.01016
H         69.68836       86.83168       57.39730
H         70.79748       87.28101       58.74339
H         70.15044       88.55023       57.62815
N         71.67915       86.43874       55.78440
C         72.78663       86.15366       54.87542
C         73.94487       85.55099       55.64713
O         75.08904       85.94744       55.47181
C         73.15101       87.39161       54.01177
C         71.94263       87.94368       53.29110
O         70.86582       87.36895       53.34629
O         71.97369       89.18403       52.77800
H         70.81497       85.89290       55.64356
H         72.44171       85.35649       54.17977
H         73.95112       87.15825       53.27767
H         73.53472       88.18923       54.68237
N         73.68264       84.54984       56.53505
C         74.70986       83.79557       57.24148
C         75.46903       82.94679       56.22393
O         74.82024       82.20730       55.49840
C         74.10296       82.91815       58.39470
C         72.97612       81.93954       57.94915
C         73.62106       83.84180       59.53315
C         72.59799       80.92342       59.02753
H         72.69619       84.31053       56.69473
H         75.39561       84.51360       57.73375
H         74.93310       82.30412       58.80322
H         73.31014       81.33812       57.08504
H         72.05915       82.49042       57.65476
H         72.78873       84.49449       59.19439
H         73.28757       83.26527       60.41772
H         74.45703       84.48648       59.87909
H         73.48668       80.31639       59.30273
H         72.18776       81.41029       59.93342
H         71.81718       80.24198       58.62844
N         76.82008       82.99955       56.03355
C         77.76855       83.79516       56.80471
C         79.11290       83.76568       56.09550
O         79.71853       82.70624       56.00081
C         77.90787       83.23344       58.24262
C         78.89804       83.99069       59.07801
O         79.97225       83.35496       59.58423
O         78.72034       85.17217       59.32604
H         77.19256       82.43046       55.25556
H         77.41644       84.84899       56.83027
H         78.22243       82.16789       58.18565
H         76.94511       83.26586       58.77853
N         79.61561       84.90235       55.53864
C         80.87812       84.95936       54.82395
C         81.76584       85.96787       55.48889
O         82.12271       86.95520       54.86254
H         79.07183       85.77640       55.60750
H         80.67717       85.26496       53.77417
H         81.39505       83.97655       54.80313
N         82.14330       85.78422       56.78371
C         82.91516       86.76343       57.53981
C         83.31393       86.21231       58.89765
O         84.49332       86.26831       59.22009
C         82.16828       88.12106       57.67183
C         80.78257       88.04428       58.25813
O         79.91743       87.38251       57.70916
O         80.46463       88.77093       59.34623
H         81.84741       84.91197       57.24907
H         83.86181       86.97939       56.99404
H         82.06788       88.58351       56.66971
H         82.79311       88.81473       58.27736
N         82.40506       85.65047       59.74705
C         82.78117       85.20439       61.07963
C         83.02257       86.38063       62.00623
O         83.49657       86.17710       63.11384
H         81.42518       85.54321       59.45137
H         83.67584       84.54915       61.00697
H         81.95746       84.60646       61.52781
N         82.61652       87.63212       61.64543
C         82.65928       88.81902       62.47935
C         81.90078       88.60796       63.77762
O         82.31261       89.09151       64.82242
C         84.08775       89.38419       62.59490
C         84.61107       89.74837       61.18854
C         85.95578       90.42151       61.22582
N         87.00944       89.90129       60.55391
O         86.08912       91.46697       61.84430
H         82.15732       87.76508       60.74055
H         82.06625       89.59901       61.94840
H         84.76403       88.65143       63.08588
H         84.05444       90.30949       63.21051
H         83.90018       90.45355       60.70458
H         84.66188       88.83238       60.56052
H         86.91544       89.03042       60.01097
H         87.92233       90.37966       60.56439
N         80.72963       87.90931       63.74262
C         79.78991       87.79117       64.84881
C         78.42867       88.25198       64.34492
O         77.86180       89.17424       64.91454
C         79.77029       86.35667       65.47488
C         79.35400       85.21413       64.53300
C         81.14136       86.02631       66.08353
H         80.46868       87.46207       62.85343
H         80.09127       88.46724       65.68157
H         79.04093       86.36874       66.31593
H         80.02286       85.15942       63.64807
H         79.40307       84.24290       65.07013
H         78.29826       85.31720       64.21735
H         81.10292       85.04650       66.60724
H         81.92256       85.97486       65.29783
H         81.42929       86.79627       66.83033
N         77.86239       87.66697       63.24691
C         76.57052       88.04764       62.68989
C         76.62296       89.45747       62.11528
O         77.70403       90.01076       61.96893
C         76.19662       87.01672       61.59432
C         74.84006       87.21341       60.97781
N         74.71472       87.42265       59.64725
O         73.84220       87.16305       61.68104
H         78.36884       86.90503       62.77754
H         75.82090       88.00092       63.51022
H         76.20917       86.00001       62.04486
H         76.97801       87.04243       60.80201
H         75.54163       87.45692       59.03244
H         73.78270       87.54326       59.23001
N         75.46729       90.11223       61.79770
C         75.45711       91.46442       61.23296
C         74.07489       92.09921       61.36775
O         73.11825       91.39482       61.65539
C         75.93809       91.38416       59.75837
C         76.30380       92.70126       59.11960
C         75.33769       93.52174       58.51263
C         77.65172       93.09899       59.09520
C         75.71608       94.72836       57.91069
C         78.02672       94.30160       58.49569
C         77.06357       95.12211       57.90347
O         77.44616       96.28036       57.32925
H         74.58275       89.64101       62.02483
H         76.15000       92.07810       61.85030
H         75.21269       90.82875       59.12276
H         76.85617       90.76130       59.73528
H         74.29577       93.22713       58.50066
H         78.41580       92.47748       59.54622
H         74.96373       95.35453       57.44792
H         79.06946       94.59332       58.49144
H         76.81556       96.88041       56.90722
N         73.90404       93.44859       61.22994
C         72.59971       94.08641       61.37367
C         72.24157       94.79009       60.08098
O         72.87164       95.79436       59.78016
C         72.60064       95.09582       62.53925
C         72.91612       94.43362       63.88634
C         72.88187       95.44465       64.99673
O         72.00738       95.30371       66.01096
O         73.64929       96.39448       64.98980
H         74.72097       94.04460       61.03447
H         71.83636       93.33342       61.60919
H         71.59485       95.56928       62.60169
H         73.35277       95.89210       62.34117
H         73.92562       93.97006       63.85864
H         72.16552       93.63921       64.08931
N         71.29106       94.33761       59.21139
C         70.55590       93.07865       59.32100
C         69.56033       93.07391       60.46398
O         68.68433       93.92629       60.50927
C         69.86145       92.79028       57.97616
C         69.10102       91.45709       57.95326
C         68.82871       91.06714       56.53080
O         67.69381       90.91785       56.10835
O         69.89551       90.82915       55.74724
H         71.16053       94.89411       58.35041
H         71.29424       92.25631       59.46023
H         70.68134       92.75404       57.22304
H         69.16542       93.60896       57.68851
H         68.16799       91.53552       58.55212
H         69.73425       90.66014       58.39560
N         69.62745       92.09732       61.41321
C         68.69684       92.01221       62.51510
H         67.66367       91.88445       62.12901
H         68.94725       91.13467       63.15026
H         68.75844       92.92969       63.13644
H         70.36166       91.37540       61.34957
Ca        70.16239       90.22675       53.59955
O         67.41966       88.65195       53.37386
H         66.65577       89.12045       52.95291
H         67.09466       87.72800       53.51814
O         70.53937       91.70105       50.85674
H         70.41053       92.68267       50.86402
H         71.52202       91.57897       50.85814
O         69.42192       88.69951       50.75101
H         70.01311       87.90869       50.67744
H         69.10151       88.85605       49.82750
O         70.97547       93.09074       53.80368
H         70.26211       93.72378       53.53805
H         71.48818       93.56840       54.50277
O         67.64380       92.05795       52.83256
H         66.73927       91.69045       52.66811
H         67.78215       92.71192       52.10217

Ca 1.0



