%chk=apoCaM-CA-Ng.loop2.water5.frame1422.chk
%nprocshared=20
%mem=10GB
%nosave
#b3lyp/svp scf=(tight,noincore,xqc) Test 
#IOP(5/87=12) Density=Current Pop=(MK,readradii) iop(6/33=2) iop(6/42=6)

apoCaM-CA-Ng.loop2.water5.frame1422 

   -2  1 
C         99.08061       98.67043      -11.05203
C         97.89935       97.74804      -10.88104
O         98.13990       96.61984      -10.47627
H         99.78711       98.21891      -11.77910
H         98.85764       99.68947      -11.40052
H         99.59591       98.76969      -10.07358
N         96.59765       98.07996      -11.13497
C         96.09226       99.35799      -11.63681
C         95.36653       99.18403      -12.97046
O         94.79259      100.16092      -13.43309
C         95.19337      100.03323      -10.56166
C         93.92525       99.29453      -10.24639
O         93.63505       98.17708      -10.91852
O         93.17597       99.69125       -9.36910
H         95.89906       97.34332      -10.95150
H         96.89996      100.08122      -11.82132
H         94.91848      101.05780      -10.89282
H         95.78752      100.12253       -9.62619
N         95.38045       98.00191      -13.67138
C         94.70158       97.84478      -14.95359
C         93.83908       96.58404      -14.99969
O         93.89885       95.86392      -15.98831
C         95.75105       97.84283      -16.07563
H         95.93581       97.20445      -13.32962
H         94.02660       98.70866      -15.13562
H         96.44356       96.98121      -15.95500
H         95.26204       97.77641      -17.07138
H         96.34422       98.78098      -16.04415
N         93.00442       96.24822      -13.97307
C         92.07907       95.11201      -14.04938
C         90.66457       95.53800      -13.67928
O         90.44224       96.68301      -13.31064
C         92.59863       93.88927      -13.24523
C         92.83799       94.17303      -11.80092
O         91.81493       94.57725      -11.03211
O         93.96608       94.10025      -11.33567
H         93.02501       96.81516      -13.11226
H         92.00872       94.75264      -15.09744
H         93.55051       93.55420      -13.71110
H         91.88088       93.04655      -13.31479
N         89.64774       94.63996      -13.79565
C         88.24819       94.92282      -13.52897
C         87.73290       94.05043      -12.40765
O         88.52543       93.43226      -11.70996
H         89.86630       93.68648      -14.11640
H         87.68152       94.70438      -14.45840
H         88.06722       95.98907      -13.26364
N         86.39388       93.97223      -12.16793
C         85.81979       93.26995      -11.02403
C         84.87472       92.15554      -11.42789
O         83.97142       92.37806      -12.22296
C         85.02959       94.27249      -10.17055
C         85.93600       95.31307       -9.57469
N         85.78897       96.62066       -9.88287
O         86.81123       94.96855       -8.79554
H         85.75099       94.47819      -12.79790
H         86.61265       92.83347      -10.37714
H         84.52732       93.74098       -9.33240
H         84.24108       94.74551      -10.79747
H         85.06027       96.93123      -10.54142
H         86.41128       97.32477       -9.46170
N         84.94679       90.95754      -10.77702
C         83.93797       89.91932      -10.89692
C         83.94454       89.21460      -12.22804
O         84.78259       89.51813      -13.06553
H         85.68005       90.81756      -10.06530
H         82.94032       90.36855      -10.70588
H         84.12988       89.15922      -10.11644
N         83.03285       88.24336      -12.52507
C         81.95848       87.79865      -11.62923
C         82.49813       87.12056      -10.36955
O         81.98978       87.39045       -9.29163
C         80.97000       86.85391      -12.35986
C         80.27119       87.56009      -13.53466
O         81.63490       85.70468      -12.81675
H         83.09802       87.81567      -13.46207
H         81.34685       88.67723      -11.32285
H         80.18221       86.56706      -11.62259
H         80.93897       85.01042      -12.95929
H         79.52754       86.87864      -13.99883
H         79.73461       88.46514      -13.17694
H         80.99359       87.86496      -14.31956
N         83.55703       86.26392      -10.43855
C         84.16193       85.56250       -9.29558
C         84.55055       86.53739       -8.17834
O         85.24828       87.49515       -8.47890
C         85.43458       84.78686       -9.78333
C         85.10131       83.63154      -10.77209
C         86.29465       84.25599       -8.62134
C         84.31659       82.46136      -10.16413
H         83.97991       86.13557      -11.36901
H         83.44703       84.82718       -8.89973
H         86.07906       85.51377      -10.32804
H         86.05628       83.22335      -11.16892
H         84.53104       84.01664      -11.64127
H         86.67451       85.08487       -7.98845
H         85.70643       83.57861       -7.97686
H         87.18477       83.72125       -9.01505
H         84.88814       81.97760       -9.34595
H         83.32868       82.78453       -9.78091
H         84.14430       81.69255      -10.94586
N         84.24576       86.34092       -6.84998
C         83.49526       85.20312       -6.29621
C         83.76641       84.97401       -4.79637
O         84.48615       85.74358       -4.17411
C         81.97406       85.38005       -6.55837
C         81.36904       86.60738       -5.92027
O         80.17846       86.83135       -6.06820
O         82.11289       87.46524       -5.19464
H         84.64720       87.02365       -6.18902
H         83.85230       84.27071       -6.77820
H         81.42364       84.49111       -6.18736
H         81.77616       85.43892       -7.64391
N         83.19814       83.90447       -4.15929
C         83.32195       83.61266       -2.72943
C         83.78583       82.16806       -2.51202
O         83.18834       81.29348       -3.12849
C         81.92226       83.73785       -2.08336
C         81.99721       83.50492       -0.59146
C         81.59973       82.27331       -0.04176
C         82.50455       84.50412        0.25696
C         81.72404       82.04135        1.33123
C         82.61442       84.27200        1.63198
C         82.23000       83.03972        2.16751
H         82.59805       83.27382       -4.71250
H         83.98446       84.34408       -2.22690
H         81.25163       82.98477       -2.55514
H         81.46904       84.73460       -2.27501
H         81.22104       81.48338       -0.67831
H         82.81834       85.45823       -0.14770
H         81.43540       81.08409        1.74584
H         83.00652       85.04399        2.28123
H         82.32738       82.85695        3.22988
N         84.72250       81.79153       -1.57935
C         85.47376       82.66380       -0.68372
C         86.40891       83.57918       -1.42528
O         86.37674       84.78160       -1.20715
C         86.26958       81.69228        0.20410
C         85.34628       80.49617        0.24956
C         84.92854       80.40285       -1.21362
H         84.76673       83.22523       -0.04453
H         87.19105       81.34474       -0.31567
H         86.56684       82.11204        1.18916
H         85.79684       79.56887        0.66228
H         84.45446       80.76818        0.86038
H         85.75139       79.98534       -1.83536
H         84.01498       79.77474       -1.30030
N         87.25474       83.05888       -2.35429
C         88.16584       83.86726       -3.14382
C         89.40304       84.16510       -2.30665
O         90.07573       83.21787       -1.92274
C         88.57118       83.10426       -4.42599
C         87.34949       82.71522       -5.28651
C         87.73533       81.91759       -6.50370
O         86.86380       81.47888       -7.23624
O         89.02627       81.65536       -6.78746
H         87.20832       82.04482       -2.53807
H         87.63699       84.78439       -3.48031
H         89.11211       82.17357       -4.14343
H         89.25391       83.74341       -5.02823
H         86.79996       83.62958       -5.59939
H         86.65534       82.08258       -4.69516
N         89.79512       85.42174       -1.95693
C         89.08021       86.62363       -2.31870
H         88.05823       86.60291       -1.88962
H         89.60821       87.50936       -1.90540
H         89.03068       86.72332       -3.42244
H         90.65142       85.52814       -1.39009
Ca        92.07924       96.68975      -10.42093
O         90.25954       99.13718       -8.26476
H         90.70948       98.86846       -7.42493
H         90.00150      100.08132       -8.11513
O         89.59496       95.39883       -9.36937
H         89.41315       95.63397       -8.42570
H         89.95517       94.47799       -9.32535
O         88.58676       98.22854      -10.83003
H         88.91890       98.06868      -11.74737
H         87.75833       98.75435      -10.96061
O         91.28702       99.51915      -12.31755
H         90.95913      100.24529      -11.72959
H         91.43329       99.95388      -13.19481
O         92.27033       96.46910       -7.51967
H         92.19137       96.85362       -6.61131
H         91.87832       95.56312       -7.44374

Ca 1.0



