%chk=apoCaM-CA-Ng.loop3.water2.frame959.chk
%nprocshared=20
%mem=10GB
%nosave
#b3lyp/svp scf=(tight,noincore,xqc) Test 
#IOP(5/87=12) Density=Current Pop=(MK,readradii) iop(6/33=2) iop(6/42=6)

apoCaM-CA-Ng.loop3.water2.frame959 

   0  1 
C         77.60197      112.36576       30.29728
C         78.38648      113.60876       30.00202
O         77.83231      114.55339       29.46072
H         76.54958      112.47157       29.95786
H         78.06384      111.49497       29.78886
H         77.60105      112.18937       31.39470
N         79.69499      113.68519       30.36989
C         80.49318      114.90325       30.23238
C         80.67789      115.27921       28.75854
O         80.44651      114.43233       27.90463
C         81.82934      114.69439       30.99410
C         82.58958      115.92315       31.41030
O         83.69685      115.77409       32.15610
O         82.18570      117.04533       31.17294
H         80.10752      112.85969       30.83296
H         79.94491      115.69960       30.75357
H         82.48151      114.00476       30.41620
H         81.59235      114.20174       31.96200
N         81.08747      116.52885       28.38367
C         81.36142      116.91460       26.99791
C         82.84769      117.15383       26.76645
O         83.25525      117.25108       25.61919
C         80.52592      118.15227       26.58600
C         80.91020      119.45613       27.32806
C         79.98758      120.61543       26.91122
C         80.30052      121.94639       27.62218
N         81.57856      122.52571       27.20207
H         81.22270      117.23526       29.11181
H         81.08124      116.07358       26.32703
H         79.45354      117.92187       26.76604
H         80.66087      118.32763       25.49564
H         81.96583      119.70684       27.09323
H         80.81367      119.32011       28.42501
H         78.94787      120.32948       27.18206
H         80.03053      120.77171       25.81148
H         80.28870      121.80241       28.72328
H         79.49305      122.66956       27.37112
H         82.37755      121.90156       27.45032
H         81.56803      122.70179       26.17084
H         81.71191      123.44069       27.69138
N         83.70736      117.28811       27.81567
C         85.14245      117.48568       27.69002
C         85.90804      116.48899       28.57143
O         87.12875      116.57133       28.62123
C         85.48116      118.95064       28.04007
C         85.21391      119.28906       29.47291
O         83.98176      119.18571       30.00341
O         86.14166      119.62725       30.18927
H         83.33178      117.29030       28.76631
H         85.46441      117.34121       26.63622
H         84.89567      119.63516       27.38985
H         86.56035      119.12263       27.83035
N         85.26422      115.51437       29.28663
C         85.93540      114.54390       30.13201
C         86.54641      115.10494       31.40445
O         87.13706      114.30506       32.11707
H         84.24822      115.38893       29.19515
H         86.71827      114.02765       29.53436
H         85.19657      113.77449       30.44827
N         86.47347      116.42639       31.77152
C         87.16208      116.95109       32.95403
C         86.17473      117.61958       33.96617
O         85.90066      118.95346       33.63463
C         88.27268      117.92511       32.49531
C         89.31454      117.29198       31.59252
N         90.26421      118.06305       31.01774
O         89.30809      116.09092       31.36751
H         85.96422      117.09327       31.17759
H         87.65516      116.11652       33.49886
H         88.79148      118.35740       33.37678
H         87.79617      118.75245       31.93102
H         90.28391      119.08011       31.17832
H         90.97065      117.64270       30.39512
N         86.74965      117.57442       35.31749
C         86.07803      118.42701       36.31459
C         84.60997      118.10197       36.50952
O         84.28380      116.95179       36.76631
H         86.74312      116.58291       35.65119
H         86.22025      119.50028       36.05942
H         86.59211      118.26988       37.28655
N         83.67436      119.09748       36.48198
C         82.25755      118.86959       36.77663
C         81.56134      118.12855       35.63430
O         82.21411      117.78978       34.65783
C         81.52959      120.21083       37.05166
C         82.19143      121.07181       38.10577
C         82.57841      122.38447       37.78435
C         82.40888      120.59671       39.41187
C         83.16704      123.20748       38.74673
C         83.00652      121.42158       40.37284
C         83.38382      122.72882       40.04545
O         83.94802      123.51570       40.98404
H         83.99891      120.06490       36.32916
H         82.18255      118.26817       37.70930
H         80.49638      120.00880       37.40103
H         81.45100      120.78053       36.10664
H         82.41523      122.77817       36.78900
H         82.11767      119.59216       39.69004
H         83.45033      124.21824       38.48123
H         83.17201      121.04684       41.37535
H         84.21283      124.42829       40.79810
N         80.21851      117.85868       35.70059
C         79.42296      117.16893       34.67944
C         79.37037      117.95562       33.36451
O         80.41680      118.30775       32.84327
C         79.90959      115.70509       34.44691
C         78.92879      114.89854       33.54541
C         80.15014      114.95748       35.77178
C         77.53488      114.64098       34.13435
H         79.70829      118.14240       36.54906
H         78.39192      117.09999       35.08185
H         80.88779      115.74086       33.92080
H         79.38460      113.91029       33.31963
H         78.78613      115.43028       32.58799
H         80.49417      113.92084       35.56743
H         80.94338      115.45596       36.36627
H         79.23055      114.92149       36.39061
H         76.93464      114.05754       33.40496
H         77.59613      114.04764       35.06888
H         76.98842      115.58386       34.33211
N         78.18146      118.19632       32.72853
C         78.09989      118.85840       31.41977
C         77.13520      120.03127       31.36293
O         77.17714      120.74948       30.37180
C         77.63904      117.85028       30.35857
O         76.35188      117.37990       30.67086
H         77.32198      117.81472       33.14836
H         79.10237      119.23326       31.11945
H         78.36351      117.02175       30.32398
H         77.62399      118.31747       29.34932
H         76.31933      116.41879       30.43116
N         76.15404      120.21989       32.29199
C         75.10417      121.21829       32.10578
C         75.65319      122.63438       32.16777
O         76.77021      122.80289       32.63775
C         74.02209      121.01772       33.16461
H         76.08513      119.58113       33.09491
H         74.66054      121.04077       31.10048
H         74.44761      121.13169       34.18319
H         73.22104      121.75605       33.04410
H         73.58592      119.99984       33.06486
N         74.99328      123.72139       31.66180
C         73.71941      123.71017       30.94167
C         72.86322      124.90562       31.35798
O         73.39535      126.00747       31.36142
C         74.01995      123.83757       29.44502
H         75.50420      124.61864       31.68454
H         73.18079      122.75370       31.05544
H         74.57121      124.77680       29.22403
H         74.63967      122.97756       29.11132
H         73.07338      123.82969       28.86205
N         71.52592      124.84184       31.63686
C         70.70166      123.64134       31.57200
C         70.86616      122.79649       32.82072
O         70.70265      121.58714       32.73535
C         69.22201      124.03815       31.36469
C         68.30947      122.83764       31.07001
C         66.91608      123.29844       30.74953
O         66.42655      123.05879       29.65693
O         66.19917      123.97817       31.66469
H         71.04721      125.73998       31.81568
H         70.98531      123.06645       30.66298
H         69.17797      124.71261       30.48004
H         68.84747      124.60011       32.24946
H         68.26783      122.15291       31.94229
H         68.71630      122.27840       30.19815
N         71.17893      123.36978       34.02068
C         71.36941      122.61802       35.24530
H         72.39685      122.79753       35.62710
H         70.64016      122.96274       36.00793
H         71.23893      121.52552       35.09913
H         71.29447      124.39187       34.08309
Ca        84.16636      119.07001       32.21142
O         82.35260      121.09781       33.73063
H         82.72519      121.89447       34.18510
H         81.37071      121.21882       33.78104
O         81.35566      120.87950       30.97610
H         80.53960      121.33987       31.29736
H         81.97804      121.61356       30.74325

Ca 1.0



