%chk=apoCaM-CA-Ng.loop2.water4.frame554.chk
%nprocshared=20
%mem=10GB
%nosave
#b3lyp/svp scf=(tight,noincore,xqc) Test 
#IOP(5/87=12) Density=Current Pop=(MK,readradii) iop(6/33=2) iop(6/42=6)

apoCaM-CA-Ng.loop2.water4.frame554 

   -2  1 
C         56.82940       49.20408       72.57870
C         56.40388       49.48414       71.16566
O         55.77383       50.50542       70.93892
H         57.49482       50.01631       72.93766
H         55.93219       49.15516       73.23223
H         57.37156       48.23853       72.65846
N         56.69571       48.60396       70.16505
C         56.26755       48.78000       68.77899
C         56.89272       50.02530       68.15352
O         57.98114       49.94734       67.60593
C         56.60112       47.50173       67.97310
C         56.17548       47.58860       66.53484
O         57.00153       47.46626       65.64408
O         54.88172       47.78833       66.22094
H         57.20961       47.74485       70.41589
H         55.15994       48.89030       68.77105
H         56.07869       46.63759       68.43951
H         57.69590       47.30531       68.02528
N         56.20571       51.20176       68.14810
C         56.69372       52.44029       67.54351
C         57.89928       52.99854       68.28770
O         57.89768       52.93421       69.50901
C         55.58282       53.49661       67.59649
H         55.27024       51.21024       68.58213
H         56.91785       52.25599       66.47350
H         55.90718       54.43596       67.10259
H         54.68227       53.11869       67.06859
H         55.30960       53.72641       68.64971
N         58.89761       53.70683       67.67697
C         58.94711       54.01259       66.24863
C         59.31940       52.80816       65.40382
O         59.72981       51.78894       65.94117
C         59.93401       55.18226       65.97885
C         61.39690       54.86924       66.23029
O         61.84586       54.48298       67.44706
O         62.20353       55.06198       65.33486
H         59.59535       54.14444       68.29724
H         57.94384       54.37909       65.94520
H         59.63874       56.04632       66.61077
H         59.82584       55.50815       64.91932
N         59.25995       52.89522       64.04488
C         59.80770       51.87817       63.16744
C         59.07602       50.55498       63.18092
O         58.03591       50.44394       63.81468
H         58.90369       53.76098       63.61197
H         60.86186       51.72806       63.46657
H         59.77784       52.25070       62.12012
N         59.54216       49.48248       62.47102
C         60.81114       49.45766       61.73894
C         61.73655       48.36717       62.28202
O         62.71954       48.04623       61.62982
C         60.58518       49.31185       60.22005
C         59.77724       50.45760       59.65593
N         58.43955       50.52579       59.84692
O         60.33722       51.32524       59.00161
H         58.97817       48.61686       62.46739
H         61.37517       50.40452       61.83940
H         60.11570       48.34425       59.94644
H         61.59159       49.34804       59.74392
H         57.94119       49.78438       60.35895
H         57.89453       51.30694       59.45254
N         61.53038       47.81214       63.51192
C         62.38839       46.80520       64.11906
C         63.83880       47.23690       64.21849
O         64.70437       46.46279       63.83561
H         60.73335       48.12896       64.07998
H         62.31682       45.85105       63.55221
H         62.01289       46.61030       65.14773
N         64.17711       48.46850       64.69690
C         65.55633       48.93905       64.84055
C         65.77254       49.46448       66.25276
O         65.04257       50.33517       66.70622
C         65.90581       49.98807       63.76812
C         66.05606       49.32026       62.39370
O         64.92422       50.98584       63.72096
H         63.41692       49.12066       64.93974
H         66.27168       48.10215       64.68171
H         66.89394       50.43242       64.03079
H         65.30821       51.74464       63.21003
H         66.86586       48.55779       62.43250
H         65.11847       48.82128       62.08235
H         66.33594       50.07345       61.62910
N         66.75048       48.90949       67.01947
C         66.90351       49.13832       68.45248
C         67.59071       50.46577       68.76273
O         68.74572       50.65015       68.40507
C         67.65739       47.91795       69.06933
C         67.97632       48.12696       70.56796
C         66.80934       46.64040       68.85232
C         68.75374       46.96548       71.19108
H         67.33144       48.17727       66.58403
H         65.89352       49.13951       68.91899
H         68.62860       47.79893       68.53700
H         67.05053       48.30112       71.14830
H         68.61213       49.02647       70.66023
H         66.58494       46.46802       67.78012
H         67.34162       45.73272       69.19315
H         65.84247       46.72294       69.39278
H         68.13987       46.04286       71.22676
H         69.68261       46.76924       70.61363
H         69.02880       47.22126       72.23488
N         66.92453       51.41341       69.48619
C         67.49251       52.66821       69.96598
C         67.39034       52.80442       71.49636
O         67.78303       53.84937       71.99687
C         66.85653       53.85052       69.20309
C         65.35961       53.90856       69.27490
O         64.69961       53.79978       68.25462
O         64.73919       54.12014       70.44632
H         65.94269       51.23887       69.71938
H         68.57886       52.72264       69.73032
H         67.14766       53.74829       68.13403
H         67.27523       54.81355       69.56821
N         66.98497       51.77345       72.31062
C         67.09468       51.81523       73.77599
C         65.81874       51.32034       74.46772
O         65.88863       50.34809       75.20779
C         68.31821       50.94945       74.16838
C         69.58404       51.55375       73.61248
C         70.27988       50.92807       72.56639
C         70.06607       52.76962       74.12642
C         71.42492       51.52024       72.02698
C         71.21999       53.35155       73.59582
C         71.89517       52.73112       72.54167
H         66.72820       50.86891       71.89018
H         67.27794       52.84842       74.14102
H         68.15889       49.92406       73.76267
H         68.42769       50.86332       75.27166
H         69.92818       49.99514       72.15677
H         69.54857       53.26404       74.93922
H         71.94533       51.04154       71.20768
H         71.58654       54.28643       73.99882
H         72.78247       53.18834       72.12437
N         64.60898       51.93985       74.30118
C         63.34822       51.48811       74.89000
C         63.10087       50.00737       74.68502
O         62.65066       49.32962       75.59764
C         62.29698       52.28129       74.10160
C         63.01592       53.58405       73.85150
C         64.40644       53.09630       73.46039
H         63.32196       51.76022       75.96916
H         62.14335       51.81350       73.10240
H         61.30835       52.36132       74.60176
H         62.54070       54.26019       73.11020
H         63.08819       54.11438       74.82816
H         64.44286       52.75047       72.40916
H         65.14044       53.90942       73.64297
N         63.43121       49.44783       73.48981
C         63.27843       48.04862       73.14749
C         64.03289       47.19941       74.16104
O         63.41986       46.36050       74.80758
C         63.81173       47.74315       71.71435
C         63.05673       48.32732       70.48219
C         63.22827       49.78057       70.05749
O         62.63688       50.18642       68.91152
O         63.90288       50.57286       70.68226
H         63.86881       50.06260       72.81163
H         62.19939       47.77668       73.18158
H         63.70755       46.63893       71.60955
H         64.88955       47.97538       71.63158
H         61.97304       48.11498       70.60103
H         63.41936       47.74517       69.60846
N         65.36541       47.38813       74.37307
C         66.10862       46.62889       75.35646
H         67.16415       46.97517       75.38295
H         65.66698       46.77499       76.36609
H         66.09299       45.54927       75.09799
H         65.86797       48.10873       73.83439
Ca        62.21786       52.31199       68.12131
O         61.46876       49.07524       66.67754
H         61.41483       48.50259       67.48304
H         60.58789       48.96668       66.24291
O         60.01145       50.41853       69.36655
H         59.64242       51.20225       69.83928
H         60.12746       50.73016       68.43394
O         63.10430       52.52971       65.13707
H         62.85263       52.80480       64.21920
H         62.85168       51.57551       65.19146
O         61.45665       53.24424       70.75864
H         62.05691       53.89486       70.31577
H         61.98325       52.40702       70.79005

Ca 1.0



