%chk=apoCaM-CA-Ng.loop1.water3.frame150.chk
%nprocshared=20
%mem=10GB
%nosave
#b3lyp/svp scf=(tight,noincore,xqc) Test 
#IOP(5/87=12) Density=Current Pop=(MK,readradii) iop(6/33=2) iop(6/42=6)

apoCaM-CA-Ng.loop1.water3.frame150 

   0  1 
C         74.91196       46.00043       56.24130
C         74.16486       45.09205       55.30906
O         74.03112       43.91192       55.59884
H         75.78837       46.43314       55.71321
H         74.24725       46.82497       56.57418
H         75.27255       45.44598       57.13352
N         73.66003       45.59111       54.14796
C         72.95186       44.78987       53.15318
C         73.71905       44.72894       51.83205
O         73.21548       44.12837       50.89283
C         71.51015       45.31539       52.96325
C         71.41565       46.71340       52.40560
O         70.87431       46.90371       51.32845
O         71.87742       47.76707       53.10489
H         73.81411       46.59099       53.95192
H         72.85186       43.73941       53.50467
H         70.97528       45.28309       53.93746
H         70.98204       44.61995       52.27563
N         74.96027       45.28526       51.70177
C         75.76784       45.24437       50.48866
C         77.04612       44.46962       50.76276
O         77.70731       44.80011       51.73823
C         76.14735       46.67621       50.06738
C         74.95182       47.45943       49.51488
C         75.38313       48.88074       49.12259
C         74.30038       49.65459       48.35386
N         73.06323       49.80989       49.11883
H         75.39316       45.75177       52.51129
H         75.21432       44.79173       49.65696
H         76.90462       46.62131       49.25397
H         76.60663       47.21272       50.92772
H         74.14259       47.50577       50.27411
H         74.57530       46.92660       48.61377
H         76.27106       48.82279       48.45492
H         75.67551       49.44031       50.03833
H         74.08085       49.13332       47.39563
H         74.70674       50.66123       48.10870
H         73.25918       50.26868       50.03743
H         72.40428       50.40960       48.57170
H         72.60684       48.88188       49.26845
N         77.53960       43.47519       49.95986
C         76.98739       42.95792       48.70693
C         76.74106       44.06963       47.68144
O         75.60223       44.25670       47.27224
C         75.72508       42.10026       48.93012
C         75.86161       41.04457       49.98471
O         75.05006       41.01807       50.89694
O         76.80708       40.08456       49.92475
H         78.44545       43.06674       50.24143
H         77.73724       42.26216       48.27630
H         75.49130       41.59193       47.97042
H         74.85458       42.72850       49.20105
N         77.72851       44.87446       47.20204
C         79.13749       44.69725       47.51028
C         80.01121       45.77792       46.89077
O         79.49140       46.74940       46.36018
H         77.44222       45.62075       46.55023
H         79.44203       43.70501       47.12030
H         79.30361       44.73218       48.60602
N         81.37212       45.70967       46.92400
C         82.11293       44.54521       47.39725
C         82.18336       43.48667       46.30351
O         81.68969       43.71316       45.20583
C         83.51520       44.94526       47.92301
C         84.47833       45.43227       46.86921
O         84.25917       46.45363       46.23942
O         85.61968       44.75312       46.64589
H         81.88946       46.48705       46.49105
H         81.58645       44.11399       48.27576
H         83.97182       44.05906       48.41302
H         83.40330       45.72391       48.70815
N         82.80423       42.29847       46.53473
C         82.94802       41.26682       45.52345
C         81.67311       40.51146       45.20178
O         81.77219       39.58709       44.40680
H         83.24928       42.13288       47.44906
H         83.66084       40.50576       45.90962
H         83.39301       41.70202       44.60168
N         80.46517       40.78464       45.78782
C         79.28867       39.93808       45.58602
C         78.15850       40.68657       44.89492
O         78.20295       41.90342       44.77693
C         78.82832       39.37210       46.95337
C         79.94463       38.58710       47.64981
O         77.71746       38.52930       46.78577
H         80.37634       41.57210       46.44372
H         79.54678       39.08619       44.91970
H         78.55538       40.23753       47.59905
H         77.17477       38.59413       47.61412
H         80.25203       37.71945       47.02862
H         80.82949       39.23285       47.83355
H         79.58439       38.21719       48.63300
N         77.13652       39.96850       44.34169
C         76.01566       40.53807       43.60127
C         74.68940       40.06121       44.19067
O         73.87210       40.90946       44.51850
C         76.15926       40.27124       42.06426
C         76.34668       38.77384       41.69048
C         77.32189       41.12917       41.52144
C         76.44827       38.50899       40.18651
H         77.18910       38.94173       44.39989
H         76.00788       41.64798       43.70310
H         75.23369       40.64632       41.57230
H         75.47221       38.19424       42.03345
H         77.26513       38.37108       42.16917
H         77.38147       41.08250       40.41631
H         77.15803       42.19963       41.77176
H         78.29274       40.80692       41.95253
H         75.53756       38.87550       39.66822
H         77.34708       38.98364       39.74482
H         76.54014       37.41544       40.01455
N         74.40458       38.73638       44.37980
C         73.14047       38.26186       44.94939
C         72.92492       38.86743       46.32782
O         73.79997       38.75117       47.17373
C         73.05681       36.71101       44.96628
C         74.13276       36.00664       45.80439
O         73.13121       36.24403       43.64283
H         75.11508       38.04018       44.12634
H         72.31267       38.59627       44.28470
H         72.05906       36.45123       45.39670
H         72.57453       35.42296       43.58928
H         74.06814       36.30613       46.86535
H         73.97282       34.90847       45.75947
H         75.15336       36.21785       45.42571
N         71.79716       39.59187       46.59110
C         71.60665       40.35603       47.82147
C         70.36648       39.93216       48.59487
O         69.60095       39.09788       48.13215
C         71.52287       41.87376       47.46529
C         70.26845       42.24556       46.65858
O         72.64497       42.26124       46.72135
H         71.07219       39.65412       45.86191
H         72.47809       40.21323       48.49845
H         71.48371       42.48232       48.39649
H         73.42298       42.18423       47.32295
H         70.24655       41.72915       45.67765
H         69.34473       41.99515       47.21921
H         70.26236       43.33923       46.46597
N         70.09001       40.55916       49.77387
C         68.83935       40.43413       50.51626
C         69.05300       40.04245       51.97725
O         68.08222       40.01499       52.72123
C         68.07119       41.77337       50.38330
C         68.79328       43.00112       50.98233
C         68.13129       44.33291       50.59663
C         66.69638       44.49678       51.11121
N         66.16139       45.80152       50.72038
H         70.78339       41.23464       50.12315
H         68.18729       39.65919       50.05640
H         67.07103       41.66713       50.85417
H         67.91519       41.95020       49.29642
H         69.82083       43.07458       50.57831
H         68.86260       42.90219       52.08723
H         68.13850       44.42973       49.48813
H         68.75071       45.15489       51.01530
H         66.68900       44.41094       52.21999
H         66.04448       43.70345       50.68751
H         66.14783       45.88617       49.67742
H         65.18421       45.89514       51.07910
H         66.74681       46.56799       51.12565
N         70.28201       39.69518       52.45604
C         70.53088       39.34016       53.85284
C         70.38842       40.57737       54.71756
O         71.11019       41.54201       54.49829
C         71.96134       38.78029       53.99917
C         72.13362       37.43862       53.25618
C         73.58586       37.18023       52.99920
O         74.22847       38.08591       52.24045
O         74.14919       36.17679       53.40447
H         71.07603       39.66393       51.80124
H         69.82025       38.54760       54.17863
H         72.23412       38.62284       55.06646
H         72.65005       39.55011       53.58351
H         71.66432       37.48490       52.25120
H         71.64111       36.61860       53.82352
N         69.47994       40.62106       55.72889
C         69.34165       41.78353       56.58016
H         68.54598       41.61005       57.33498
H         70.29802       41.97935       57.11158
H         69.07003       42.67216       55.97126
H         68.87187       39.80760       55.90625
Ca        76.24394       38.38403       51.29389
O         74.81519       36.65156       49.34126
H         73.87426       36.96021       49.35077
H         75.31261       37.38647       48.90200
O         76.90671       37.55275       54.29493
H         76.08120       37.92169       54.69868
H         76.79147       36.57068       54.34577
O         76.82564       40.63639       53.43564
H         77.05701       41.54004       53.10415
H         75.83824       40.64410       53.51313

Ca 1.0



