%chk=apoCaM-CA-Ng.loop2.water5.frame1278.chk
%nprocshared=20
%mem=10GB
%nosave
#b3lyp/svp scf=(tight,noincore,xqc) Test 
#IOP(5/87=12) Density=Current Pop=(MK,readradii) iop(6/33=2) iop(6/42=6)

apoCaM-CA-Ng.loop2.water5.frame1278 

   -2  1 
C         50.77320       57.63042        7.36067
C         49.53994       58.49672        7.44180
O         48.73049       58.40124        6.53104
H         51.51010       57.81471        8.16213
H         50.47995       56.55952        7.38085
H         51.29349       57.83594        6.40137
N         49.29378       59.39070        8.44762
C         50.12394       59.57717        9.63552
C         49.69360       60.82197       10.42061
O         48.51977       60.97874       10.72448
C         50.10015       58.32643       10.56467
C         48.75656       57.96793       11.14644
O         48.68279       57.09368       11.99475
O         47.64564       58.63147       10.78537
H         48.44946       59.97687        8.35169
H         51.17647       59.74085        9.31875
H         50.78539       58.54288       11.41350
H         50.49141       57.42559       10.05506
N         50.61569       61.73491       10.83515
C         50.25187       62.87134       11.67730
C         49.36164       63.84376       10.92847
O         49.80200       64.39306        9.92754
C         51.50761       63.59366       12.17152
H         51.60891       61.57517       10.60632
H         49.72597       62.48625       12.57912
H         52.14287       62.88762       12.74820
H         52.09759       63.98717       11.31636
H         51.22505       64.43601       12.83825
N         48.08451       64.08879       11.34889
C         47.18737       65.00896       10.64995
C         46.38273       65.87983       11.60776
O         46.42471       65.66927       12.81262
C         46.28458       64.22570        9.67517
C         45.37190       63.21012       10.31609
O         45.34002       63.03044       11.65040
O         44.64483       62.53330        9.60782
H         47.72512       63.55895       12.15697
H         47.79583       65.70704       10.03322
H         46.94379       63.69055        8.95683
H         45.66360       64.94072        9.09469
N         45.64783       66.92193       11.12032
C         44.90039       67.83459       11.97120
C         43.60384       67.26603       12.51689
O         42.96065       67.97119       13.28143
H         45.68566       67.12870       10.11062
H         44.61575       68.72964       11.37507
H         45.55740       68.18299       12.79722
N         43.11250       66.05187       12.12838
C         41.81293       65.53950       12.55720
C         41.96508       64.16215       13.17256
O         42.47594       63.27492       12.50508
C         40.87100       65.43864       11.33882
C         40.64073       66.77264       10.67137
N         40.04553       67.79129       11.33521
O         40.98487       66.92946        9.50940
H         43.64047       65.48696       11.44798
H         41.33486       66.21790       13.29704
H         39.88591       65.03345       11.65929
H         41.30845       64.73287       10.59752
H         39.73431       67.67869       12.31055
H         39.88637       68.69625       10.86755
N         41.49346       63.88998       14.42243
C         41.54090       62.53698       14.97266
C         40.87376       62.41331       16.33309
O         40.43230       63.41580       16.87681
H         41.05328       64.65479       14.95526
H         42.59832       62.20496       15.05340
H         40.99822       61.86661       14.27241
N         40.71736       61.21308       16.96875
C         41.14925       59.90964       16.46808
C         39.90330       59.07624       16.19894
O         39.08534       58.91343       17.09409
C         42.09785       59.25394       17.49612
C         42.56912       57.87166       17.03716
O         43.23080       60.06678       17.67387
H         40.22501       61.22045       17.87712
H         41.71754       60.01621       15.52055
H         41.57365       59.11634       18.47134
H         42.99049       60.76548       18.33715
H         43.09207       57.94095       16.06186
H         43.27046       57.44710       17.78645
H         41.71024       57.17702       16.93114
N         39.67048       58.58573       14.94708
C         38.38971       58.03930       14.50130
C         38.54666       56.61145       13.95900
O         39.44264       56.40602       13.15161
C         37.86409       58.98162       13.37445
C         37.74155       60.46273       13.83210
C         36.53934       58.49509       12.77465
C         36.74640       60.71430       14.97035
H         40.40058       58.71242       14.22839
H         37.64996       58.05715       15.31959
H         38.60950       58.96949       12.54678
H         37.43525       61.08065       12.96047
H         38.73639       60.83444       14.15493
H         36.65982       57.48066       12.34395
H         35.73180       58.46309       13.53209
H         36.23056       59.17318       11.95216
H         37.03422       60.16616       15.88880
H         36.73844       61.79742       15.21282
H         35.71762       60.42399       14.67727
N         37.67512       55.58403       14.23983
C         36.50910       55.69873       15.11984
C         35.42190       54.64853       14.85263
O         35.62192       53.71546       14.08970
C         36.95962       55.60464       16.60003
C         37.53011       54.24751       16.93439
O         36.93074       53.47489       17.86085
O         38.53347       53.83969       16.37076
H         37.82285       54.69610       13.73605
H         36.01061       56.66460       14.91676
H         36.09014       55.79347       17.26431
H         37.72426       56.37222       16.83270
N         34.23109       54.76243       15.51511
C         33.16627       53.76177       15.52530
C         31.82776       54.37906       15.10324
O         31.50511       55.43462       15.62891
C         33.01688       53.29548       16.99182
C         31.99905       52.19498       17.14541
C         30.74234       52.46166       17.71515
C         32.29879       50.89177       16.71632
C         29.79620       51.44092       17.84057
C         31.35350       49.87121       16.85439
C         30.10207       50.14633       17.41270
H         34.09687       55.58624       16.12065
H         33.43349       52.88364       14.90382
H         32.71753       54.17642       17.60383
H         33.98767       52.94063       17.40092
H         30.48833       53.46141       18.04544
H         33.26423       50.66834       16.27932
H         28.82528       51.65444       18.26842
H         31.59059       48.86780       16.52618
H         29.36932       49.35662       17.51387
N         30.92957       53.74930       14.27208
C         31.09695       52.44106       13.65284
C         32.15272       52.41626       12.57561
O         32.69513       51.35876       12.29579
C         29.72504       52.15177       13.02403
C         28.79282       52.91417       13.94419
C         29.56660       54.21592       14.10618
H         31.29710       51.69897       14.44796
H         29.64961       52.65038       12.02879
H         29.49866       51.07204       12.89035
H         27.75795       53.03810       13.56006
H         28.75812       52.39165       14.92797
H         29.50435       54.81189       13.16758
H         29.17794       54.80748       14.96260
N         32.43822       53.55329       11.88261
C         33.38817       53.60909       10.78237
C         32.85748       52.77209        9.62413
O         31.77989       53.08300        9.13560
C         33.56001       55.07060       10.31155
C         34.13854       55.98025       11.40917
C         34.15395       57.40754       10.94753
O         34.80167       57.73345        9.96572
O         33.45297       58.33929       11.62300
H         31.93869       54.41539       12.14090
H         34.37593       53.25138       11.13981
H         32.56707       55.46666        9.99996
H         34.24106       55.09982        9.43223
H         35.16725       55.65035       11.66941
H         33.52416       55.93180       12.33203
N         33.51686       51.69457        9.11246
C         34.78743       51.21312        9.60598
H         35.56342       51.99906        9.49729
H         34.69667       50.91197       10.66989
H         35.10225       50.32270        9.02124
H         33.08538       51.18310        8.32658
Ca        45.83032       58.65698       12.10020
O         45.45126       59.42029        8.68806
H         45.56975       58.63617        8.09508
H         45.84586       60.17501        8.18296
O         43.33635       60.49344       11.90422
H         43.77083       60.95167       12.66687
H         42.36667       60.62354       12.05552
O         43.83627       56.95672       10.94032
H         44.10497       56.72643       11.86557
H         43.15845       57.66995       11.05099
O         48.14723       60.23593       13.89505
H         49.12713       60.29310       13.76408
H         47.84330       61.17810       13.91885
O         44.71752       59.39890       14.70124
H         45.41210       58.77196       15.02554
H         44.92771       60.25815       15.14461

Ca 1.0



