%chk=apoCaM-CA-Ng.loop2.water3.frame1025.chk
%nprocshared=20
%mem=10GB
%nosave
#b3lyp/svp scf=(tight,noincore,xqc) Test 
#IOP(5/87=12) Density=Current Pop=(MK,readradii) iop(6/33=2) iop(6/42=6)

apoCaM-CA-Ng.loop2.water3.frame1025 

   -2  1 
C         40.49285       50.50021       79.68619
C         39.43141       50.98964       78.73600
O         39.57607       50.72285       77.55184
H         41.47665       50.89659       79.35832
H         40.34897       50.82649       80.73131
H         40.52818       49.39088       79.65699
N         38.34490       51.72784       79.11315
C         37.99642       52.09059       80.49150
C         36.91879       53.18252       80.52788
O         36.51716       53.67079       79.48031
C         37.57002       50.83508       81.29943
C         36.33205       50.18181       80.76566
O         36.32186       49.70233       79.64381
O         35.23813       50.08822       81.54301
H         37.73170       52.04422       78.34630
H         38.88495       52.54618       80.97912
H         37.39879       51.11704       82.35825
H         38.36905       50.07031       81.31054
N         36.42717       53.64453       81.71877
C         35.50389       54.77233       81.84256
C         34.16345       54.58938       81.12539
O         33.41010       55.55318       81.09123
C         36.20717       56.05633       81.36811
H         36.75957       53.22083       82.59651
H         35.27980       54.92996       82.92133
H         35.56455       56.94310       81.55485
H         37.15095       56.19795       81.93789
H         36.44702       56.02369       80.28622
N         33.77658       53.40907       80.55035
C         32.53585       53.26402       79.78529
C         31.51740       52.36219       80.46173
O         31.80786       51.76435       81.48766
C         32.84335       52.82345       78.33327
C         33.90450       51.75461       78.14021
O         34.86474       52.02367       77.43553
O         33.86146       50.51925       78.68364
H         34.37423       52.57780       80.64876
H         32.00726       54.24035       79.71773
H         33.22152       53.72568       77.80131
H         31.90743       52.52533       77.81699
N         30.24025       52.31237       79.96616
C         29.16145       51.54470       80.57449
C         29.26881       50.06970       80.27654
O         30.12909       49.67833       79.50341
H         29.99837       52.90946       79.16050
H         28.18737       51.88014       80.15758
H         29.14975       51.73584       81.66890
N         28.40464       49.18347       80.85522
C         28.50722       47.73875       80.65243
C         27.23152       47.14355       80.08678
O         26.20097       47.80171       80.05711
C         28.81847       47.05177       81.99457
C         30.08563       47.57765       82.61578
N         30.05551       48.19754       83.81875
O         31.14879       47.43980       82.03028
H         27.68246       49.54158       81.49933
H         29.32427       47.51115       79.93250
H         28.92675       45.95495       81.85338
H         27.96291       47.22289       82.68514
H         29.16829       48.32638       84.32679
H         30.92149       48.55329       84.24674
N         27.25945       45.86218       79.61582
C         26.12047       45.12017       79.09314
C         25.44562       45.77772       77.90663
O         25.78153       46.90390       77.56991
H         28.16129       45.36132       79.63415
H         25.36637       44.97146       79.89544
H         26.50195       44.12636       78.77592
N         24.47062       45.15376       77.18585
C         24.05148       43.75996       77.33222
C         24.38487       42.98410       76.05104
O         23.93869       41.85296       75.91346
C         22.54330       43.68752       77.67503
C         22.25476       44.31807       79.04426
O         21.78513       44.32282       76.67849
H         24.03279       45.68868       76.41786
H         24.57949       43.23952       78.15645
H         22.25788       42.61024       77.73520
H         20.84736       44.01624       76.79412
H         21.17701       44.21198       79.29148
H         22.84031       43.79974       79.83454
H         22.51712       45.39645       79.05016
N         25.21006       43.51251       75.09290
C         25.56608       42.83602       73.84630
C         26.26063       41.50230       74.15212
O         27.27244       41.54175       74.83952
C         26.50277       43.73880       72.96956
C         25.75340       45.02935       72.52636
C         27.01008       42.96925       71.72842
C         26.62696       46.02041       71.75428
H         25.63212       44.43431       75.26088
H         24.64790       42.71751       73.25632
H         27.39154       44.01750       73.57922
H         25.37091       45.57521       73.41189
H         24.87840       44.75574       71.89611
H         26.16006       42.67669       71.07862
H         27.72819       43.57024       71.13867
H         27.57060       42.05833       72.02178
H         26.02731       46.92078       71.50417
H         27.49639       46.32807       72.37202
H         26.98959       45.59333       70.80032
N         25.86572       40.28859       73.64684
C         24.70058       40.05844       72.79113
C         25.07550       40.03127       71.31497
O         26.24126       39.90576       70.97429
C         23.90642       38.81058       73.23881
C         24.63051       37.49035       73.12008
O         25.76343       37.41631       72.67093
O         24.00500       36.36466       73.51266
H         26.47880       39.48368       73.84344
H         23.97980       40.87713       72.91038
H         22.97631       38.73801       72.63441
H         23.61209       38.94983       74.30183
N         24.09822       40.24840       70.38736
C         24.31747       40.32990       68.94142
C         23.03494       40.84151       68.27997
O         21.98752       40.27956       68.56366
C         24.75095       38.96339       68.35429
C         24.93027       39.04848       66.85150
C         23.81550       38.92807       66.00112
C         26.19557       39.29296       66.28647
C         23.96012       39.05655       64.61776
C         26.33390       39.42892       64.89937
C         25.21717       39.31204       64.06695
H         23.14870       40.42205       70.74867
H         25.14346       41.03454       68.74179
H         24.02477       38.15861       68.59842
H         25.71830       38.67411       68.81768
H         22.83125       38.74108       66.41051
H         27.06846       39.40325       66.91730
H         23.09427       38.96795       63.97418
H         27.30541       39.63378       64.46826
H         25.32389       39.42269       62.99530
N         23.01691       41.85966       67.35328
C         24.18054       42.46307       66.71824
C         24.75190       43.62936       67.53041
O         25.07795       43.41920       68.68924
C         23.62729       42.81827       65.32623
C         22.23549       43.31122       65.67980
C         21.79208       42.24208       66.67287
H         24.99752       41.73235       66.56978
H         24.24818       43.47664       64.68765
H         23.49507       41.87428       64.74988
H         22.33727       44.28152       66.21466
H         21.53832       43.44672       64.82603
H         21.00964       42.62751       67.36114
H         21.40980       41.35005       66.12725
N         24.96834       44.86531       66.98312
C         25.62729       45.96182       67.68281
C         26.85436       46.41018       66.87978
O         26.86685       47.53956       66.40809
C         24.62100       47.12011       67.86144
C         23.42653       46.71732       68.73491
C         22.47105       47.86566       68.88326
O         21.31820       47.75908       68.49660
O         22.87993       49.01866       69.44712
H         24.68334       45.06593       66.01693
H         25.96816       45.66487       68.69574
H         24.25354       47.45058       66.86347
H         25.14108       47.97523       68.34871
H         23.78470       46.41354       69.74222
H         22.89653       45.85611       68.27326
N         27.94213       45.61483       66.65098
C         28.13995       44.27409       67.16043
H         29.07654       44.24521       67.75510
H         27.33018       43.93681       67.82012
H         28.23412       43.56583       66.31047
H         28.70799       45.99633       66.07374
Ca        32.66307       49.48327       80.28626
O         34.11985       46.59356       81.14318
H         34.19884       46.85276       82.09562
H         33.53268       45.79611       81.15070
O         32.57614       47.25458       78.27689
H         31.91048       47.92319       77.97604
H         32.03369       46.51616       78.65196
O         33.17942       49.80080       83.65593
H         34.00101       49.83263       84.20726
H         32.60877       50.52459       84.01766

Ca 1.0



