%chk=apoCaM-CA-Ng.loop2.water4.frame712.chk
%nprocshared=20
%mem=10GB
%nosave
#b3lyp/svp scf=(tight,noincore,xqc) Test 
#IOP(5/87=12) Density=Current Pop=(MK,readradii) iop(6/33=2) iop(6/42=6)

apoCaM-CA-Ng.loop2.water4.frame712 

   -2  1 
C         79.64270       -0.19435      -10.99523
C         81.04268        0.09231      -11.45606
O         81.22145        0.79909      -12.43778
H         78.89705        0.29236      -11.65935
H         79.46429       -1.29134      -11.01110
H         79.50345        0.17923       -9.95967
N         82.09559       -0.46722      -10.80088
C         83.47917       -0.29669      -11.22690
C         83.95672        1.13128      -11.00278
O         83.93578        1.59572       -9.87289
C         84.38813       -1.27956      -10.46109
C         85.80441       -1.23773      -10.96634
O         86.80990       -0.90983      -10.13360
O         86.04977       -1.50911      -12.13145
H         81.89148       -1.08930      -10.00235
H         83.54488       -0.57350      -12.30345
H         84.00644       -2.31450      -10.60146
H         84.36574       -1.04765       -9.37352
N         84.46646        1.85923      -12.03567
C         85.03517        3.20116      -11.87607
C         83.96263        4.22851      -11.51085
O         82.79025        3.91141      -11.65678
C         85.70314        3.58902      -13.21142
H         84.50543        1.40852      -12.96352
H         85.80708        3.15572      -11.07727
H         86.19499        4.57363      -13.21321
H         86.48132        2.83836      -13.46674
H         84.94600        3.60100      -14.02474
N         84.23876        5.50007      -11.07628
C         85.56561        6.02075      -10.73467
C         86.05437        5.49178       -9.39434
O         85.30331        4.82890       -8.69299
C         85.56894        7.57204      -10.75755
C         84.67595        8.24738       -9.74448
O         84.62011        9.46634       -9.71844
O         83.94061        7.53769       -8.86736
H         83.43255        6.13416      -10.96308
H         86.29083        5.72471      -11.50441
H         85.25496        7.90204      -11.77214
H         86.60502        7.93998      -10.59593
N         87.32644        5.75972       -8.98227
C         87.87048        5.35229       -7.69484
C         89.00189        4.36046       -7.86865
O         89.25653        3.94751       -8.99186
H         87.95349        6.28235       -9.61314
H         87.09262        4.90055       -7.05083
H         88.25090        6.26464       -7.18947
N         89.77142        3.93003       -6.82464
C         89.63289        4.38941       -5.44099
C         88.35380        3.88759       -4.77656
O         87.63729        3.09078       -5.36647
C         90.86465        3.95574       -4.60177
C         90.93108        2.46525       -4.33494
N         90.89233        1.99451       -3.06564
O         91.02362        1.67790       -5.26429
H         90.55215        3.29815       -7.05936
H         89.63711        5.50093       -5.45517
H         90.83730        4.49232       -3.63017
H         91.79557        4.28052       -5.11589
H         90.81607        2.63666       -2.26327
H         90.93665        0.98135       -2.88148
N         88.04067        4.29049       -3.50973
C         86.90331        3.78538       -2.75259
C         85.95013        4.87279       -2.28487
O         85.03524        4.54399       -1.54315
H         88.66582        4.95698       -3.03160
H         87.30961        3.27976       -1.84943
H         86.32738        3.02911       -3.32622
N         86.09807        6.18195       -2.64332
C         85.25143        7.25420       -2.11775
C         83.79479        7.08657       -2.53290
O         83.51334        7.06163       -3.71690
C         85.77780        8.63140       -2.59043
C         84.96148        9.78780       -1.99815
O         87.11747        8.76953       -2.19034
H         86.86929        6.43887       -3.27622
H         85.33178        7.23978       -1.00754
H         85.71000        8.66880       -3.70274
H         87.53497        9.43124       -2.80154
H         85.37238       10.75647       -2.35088
H         83.89996        9.73153       -2.31802
H         85.00643        9.76112       -0.88838
N         82.81429        7.01518       -1.58944
C         81.37919        6.92904       -1.88382
C         80.89712        8.19742       -2.60180
O         81.01453        9.28168       -2.04901
C         80.59375        6.70548       -0.54682
C         79.05139        6.84203       -0.66451
C         80.96370        5.34174        0.07766
C         78.36541        5.78421       -1.52598
H         83.11269        7.03819       -0.60303
H         81.19304        6.04571       -2.53468
H         80.90525        7.50720        0.15983
H         78.80027        7.84762       -1.06394
H         78.61046        6.78610        0.35528
H         80.69024        4.50710       -0.60244
H         82.05099        5.25825        0.27468
H         80.43534        5.20268        1.04413
H         77.27841        6.00260       -1.56206
H         78.77370        5.78845       -2.55211
H         78.48615        4.77195       -1.09262
N         80.30988        8.10674       -3.83345
C         79.75989        9.21969       -4.60481
C         78.26522        9.05185       -4.91326
O         77.71396        9.97972       -5.49073
C         80.49095        9.31066       -5.96020
C         81.94128        9.66909       -5.84871
O         82.88753        8.78903       -6.22884
O         82.26733       10.78200       -5.46840
H         80.25204        7.18598       -4.26160
H         79.87648       10.17414       -4.04540
H         80.02086       10.08234       -6.60953
H         80.39085        8.33327       -6.47902
N         77.54028        7.93258       -4.59234
C         76.11373        7.79024       -4.89699
C         75.85671        6.51352       -5.71849
O         75.10765        5.66077       -5.26079
C         75.34949        7.77798       -3.54994
C         73.83534        7.87584       -3.59763
C         73.09324        8.06144       -4.78400
C         73.14397        7.79697       -2.37542
C         71.69878        8.16929       -4.73515
C         71.75129        7.89868       -2.33379
C         71.02895        8.08765       -3.51250
H         77.99256        7.15740       -4.09687
H         75.75979        8.66758       -5.47743
H         75.69670        8.64523       -2.94657
H         75.63239        6.85212       -3.00444
H         73.57243        8.13602       -5.74898
H         73.68817        7.65501       -1.44934
H         71.13578        8.32026       -5.64720
H         71.23311        7.83468       -1.38555
H         69.95044        8.17261       -3.47769
N         76.44211        6.29332       -6.93922
C         76.28061        5.07916       -7.74058
C         76.43670        3.79029       -6.95356
O         75.64481        2.87675       -7.13566
C         77.41765        5.18921       -8.76477
C         77.45965        6.67719       -9.01053
C         77.33854        7.22586       -7.59165
H         75.29342        5.10777       -8.25509
H         78.38733        4.91848       -8.28684
H         77.28521        4.55625       -9.66828
H         78.34065        7.04727       -9.57571
H         76.53637        6.94229       -9.57511
H         78.31411        7.20327       -7.06239
H         76.93493        8.25940       -7.64059
N         77.43593        3.67437       -6.03620
C         77.68473        2.48406       -5.23331
C         76.42923        2.10753       -4.47225
O         75.93327        1.00502       -4.66200
C         78.86582        2.64826       -4.22893
C         80.27579        2.79725       -4.85539
C         80.65681        4.17779       -5.31447
O         81.85451        4.40038       -5.87953
O         79.94093        5.12880       -5.09014
H         78.00835        4.50150       -5.90110
H         77.94676        1.64411       -5.91510
H         78.90038        1.69247       -3.66058
H         78.68007        3.45495       -3.48655
H         80.39249        2.06141       -5.67728
H         81.02351        2.55242       -4.06927
N         75.84101        2.98439       -3.61417
C         74.61841        2.65888       -2.91285
H         73.81300        2.43126       -3.64460
H         74.77948        1.77745       -2.25664
H         74.29664        3.51941       -2.28956
H         76.25857        3.91608       -3.46953
Ca        82.50469        6.55624       -6.11079
O         82.57909        3.41112       -8.30065
H         82.03820        3.51238       -9.12203
H         82.16451        2.64649       -7.82721
O         85.71378        7.59729       -6.30620
H         86.55683        7.44818       -5.80982
H         85.58411        8.57853       -6.28169
O         80.95682        6.52944       -8.77293
H         81.26125        5.85597       -9.43101
H         80.56980        5.99615       -8.03422
O         84.71559        4.26661       -5.86397
H         85.18010        4.48088       -5.01808
H         84.65178        3.27871       -5.87297

Ca 1.0



