%chk=apoCaM-CA-Ng.loop4.water3.frame979.chk
%nprocshared=20
%mem=10GB
%nosave
#b3lyp/svp scf=(tight,noincore,xqc) Test 
#IOP(5/87=12) Density=Current Pop=(MK,readradii) iop(6/33=2) iop(6/42=6)

apoCaM-CA-Ng.loop4.water3.frame979 

   -3  1 
C         50.15128      107.68086       82.71965
C         50.19669      108.68872       83.82813
O         50.24800      109.87789       83.54912
H         51.02919      107.00573       82.79490
H         49.21989      107.08182       82.79860
H         50.16932      108.18321       81.72868
N         50.16935      108.27061       85.12825
C         50.22839      109.15297       86.29491
C         49.01287      110.06226       86.44225
O         48.99364      110.83327       87.39096
C         51.53808      109.97262       86.29707
C         52.73109      109.06371       86.25548
O         52.94005      108.17361       87.24383
O         53.50932      109.11918       85.32012
H         50.12952      107.25566       85.30947
H         50.23857      108.51465       87.20717
H         51.60446      110.58683       87.22063
H         51.56422      110.67181       85.43470
N         47.95739      110.02978       85.57575
C         46.78572      110.89149       85.72070
C         46.02625      110.39239       86.94780
O         45.59654      109.24729       86.89855
C         45.88134      110.80909       84.43737
C         46.68723      111.11354       83.13695
C         44.68360      111.77039       84.55393
C         45.88078      110.90721       81.85168
H         47.96829      109.35202       84.80705
H         47.13361      111.94083       85.82212
H         45.49325      109.76872       84.35751
H         47.54804      110.42527       83.04274
H         47.09050      112.14844       83.16420
H         43.97659      111.63846       83.71175
H         44.10744      111.58261       85.48284
H         45.03704      112.82289       84.54266
H         45.04661      111.63083       81.76951
H         46.54307      111.05857       80.97304
H         45.47994      109.87112       81.81199
N         45.85342      111.08493       88.11322
C         46.28783      112.44689       88.41639
C         46.26530      112.63545       89.92622
O         45.21346      112.46422       90.52905
C         45.35505      113.47317       87.74454
C         45.66282      114.88593       88.15860
O         44.71419      115.62757       88.76048
O         46.76909      115.36151       87.96827
H         45.39758      110.55659       88.87564
H         47.33048      112.60411       88.07168
H         44.30071      113.24838       88.02001
H         45.45088      113.40341       86.64969
N         47.39951      112.98538       90.60069
C         47.44657      113.11078       92.04702
C         47.74295      114.52418       92.46215
O         48.71384      114.74175       93.17164
H         48.27034      113.15833       90.07512
H         48.21984      112.41679       92.44339
H         46.47942      112.82967       92.51336
N         46.90508      115.53306       92.08852
C         47.04521      116.91548       92.53617
C         45.85445      117.75641       92.08435
O         45.16063      118.27546       92.94854
C         48.42701      117.54260       92.18433
C         48.96605      117.29730       90.79518
O         48.42677      117.75772       89.80704
O         50.10852      116.59946       90.64632
H         46.09864      115.29096       91.49150
H         46.99762      116.92270       93.64967
H         49.17361      117.10212       92.87688
H         48.41261      118.63085       92.41301
N         45.55062      117.94337       90.76989
C         44.45162      118.78361       90.31228
C         44.95118      120.02149       89.59366
O         44.12640      120.79084       89.12259
H         46.12559      117.49101       90.05000
H         43.81985      119.12974       91.15792
H         43.80612      118.18513       89.63416
N         46.28620      120.29329       89.48792
C         46.85486      121.47147       88.85092
C         46.56018      121.52988       87.35949
O         46.68476      122.59577       86.77258
C         46.51087      122.75916       89.63382
C         46.93497      122.60772       91.11150
C         46.79400      123.86211       91.93337
N         47.12471      123.83610       93.24575
O         46.39552      124.90191       91.42937
H         46.96803      119.65032       89.89988
H         47.96309      121.38460       88.91322
H         45.42632      122.99218       89.57645
H         47.07684      123.60307       89.18048
H         48.00263      122.30045       91.15670
H         46.31924      121.81307       91.58633
H         47.46084      122.96539       93.68462
H         47.04566      124.68382       93.82622
N         46.27913      120.38678       86.66372
C         46.12675      120.33414       85.21075
C         47.16097      119.41816       84.55249
O         47.24445      119.44173       83.33159
C         44.69495      119.86176       84.82445
C         44.37397      118.44977       85.35779
C         43.63427      120.85531       85.31283
H         46.19167      119.50655       87.18633
H         46.28885      121.34716       84.78009
H         44.62763      119.82845       83.71391
H         43.37040      118.12809       85.00942
H         45.11259      117.70846       84.98764
H         44.36993      118.42309       86.46760
H         43.63945      120.93129       86.42001
H         43.82600      121.86051       84.88169
H         42.62473      120.52564       84.98597
N         47.91386      118.52863       85.26862
C         48.79276      117.53836       84.65546
C         50.15782      117.52644       85.33331
O         50.32115      118.10233       86.40119
C         48.08223      116.17137       84.79905
C         48.86066      114.96258       84.34631
N         49.16203      113.97824       85.22852
O         49.20590      114.85965       83.17907
H         47.79213      118.45730       86.28659
H         48.94178      117.76137       83.57550
H         47.12716      116.20561       84.23041
H         47.82738      116.04110       85.86707
H         48.86890      114.04322       86.21530
H         49.68697      113.14375       84.92976
N         51.19848      116.88172       84.73371
C         52.52090      116.72323       85.34018
C         53.56077      116.31322       84.28281
O         53.20649      116.03425       83.14506
C         52.39366      115.69793       86.50437
C         53.69091      115.30832       87.17103
C         54.46680      116.24752       87.87312
C         54.14219      113.98034       87.07711
C         55.69174      115.86690       88.43568
C         55.36120      113.60376       87.64044
C         56.14581      114.54787       88.31436
O         57.33534      114.19892       88.84435
H         51.02749      116.49810       83.79446
H         52.85880      117.71557       85.71392
H         51.92307      114.78587       86.07564
H         51.70098      116.08593       87.28156
H         54.13662      117.27489       87.96210
H         53.55798      113.23492       86.55156
H         56.29462      116.59981       88.95673
H         55.69767      112.57930       87.54365
H         57.68861      113.30087       88.76438
N         54.89178      116.35578       84.57985
C         55.95932      116.15347       83.61166
C         56.88177      115.02228       84.07294
O         58.02455      115.30368       84.41093
C         56.74931      117.48142       83.48971
C         55.87822      118.65385       83.01861
C         56.68929      119.91611       82.95287
O         56.82195      120.50867       81.89439
O         57.26681      120.40650       84.06725
H         55.18795      116.64198       85.51877
H         55.56562      115.92293       82.60307
H         57.58182      117.34422       82.76380
H         57.18508      117.73750       84.48239
H         55.03973      118.82217       83.72744
H         55.45528      118.41861       82.01757
N         56.51066      113.70915       84.14107
C         55.22063      113.14647       83.74259
C         54.94971      113.29327       82.25174
O         55.81902      113.73715       81.51395
C         55.16474      111.64176       84.12753
C         56.18042      110.77159       83.35067
C         56.13351      109.34075       83.79611
O         56.43158      109.01977       85.06995
O         55.85015      108.45892       83.00131
H         57.21751      113.06658       84.52975
H         54.42496      113.67250       84.30576
H         54.14432      111.24780       83.93546
H         55.35358      111.55175       85.21942
H         57.21743      111.12954       83.50512
H         55.95723      110.82306       82.26293
N         53.74902      112.89615       81.74086
C         53.41606      112.95572       80.33221
H         52.52085      113.59642       80.19230
H         54.24382      113.36535       79.71653
H         53.18478      111.93210       79.96864
H         53.02788      112.52440       82.37692
Ca        54.33330      106.25673       84.50585
O         54.25698      104.22890       86.81385
H         54.24755      103.42286       86.23880
H         53.30085      104.44006       86.96156
O         55.81308      107.02073       87.63500
H         55.73778      107.95104       87.96555
H         55.81035      106.46448       88.45411
O         57.54572      105.96672       85.15678
H         58.01972      106.03970       86.02309
H         57.49498      104.99332       84.98281

Ca 1.0



