%chk=apoCaM-CA-Ng.loop3.water3.frame827.chk
%nprocshared=20
%mem=10GB
%nosave
#b3lyp/svp scf=(tight,noincore,xqc) Test 
#IOP(5/87=12) Density=Current Pop=(MK,readradii) iop(6/33=2) iop(6/42=6)

apoCaM-CA-Ng.loop3.water3.frame827 

   0  1 
C         73.01254       95.30043       68.54613
C         73.71644       96.17437       67.55051
O         74.74733       95.78293       67.02388
H         71.98927       95.07513       68.17265
H         73.55263       94.34064       68.68602
H         72.93266       95.82399       69.52055
N         73.16906       97.37024       67.20716
C         73.69933       98.21649       66.13916
C         75.04186       98.85162       66.54275
O         75.33439       98.88572       67.73004
C         72.59125       99.24459       65.78139
C         72.67319       99.92772       64.45102
O         71.75463      100.65268       64.10435
O         73.68705       99.71102       63.60230
H         72.27818       97.62889       67.66202
H         73.83470       97.56153       65.26481
H         72.49817       99.99505       66.59602
H         71.63077       98.68515       65.72306
N         75.90456       99.37713       65.61550
C         77.14074      100.09320       65.95291
C         77.07679      101.56926       65.56673
O         77.94702      102.31260       65.99942
C         78.36608       99.47447       65.24852
C         78.78360       98.11293       65.80826
C         80.07643       97.64408       65.11820
C         80.67068       96.40926       65.80396
N         81.92848       96.01529       65.16752
H         75.67769       99.28140       64.62240
H         77.29856      100.08426       67.05326
H         79.23406      100.15356       65.40600
H         78.18032       99.41129       64.15277
H         77.97756       97.35874       65.67795
H         78.98426       98.24345       66.89406
H         80.83641       98.45486       65.17674
H         79.87239       97.43093       64.04520
H         79.94860       95.56520       65.76200
H         80.87077       96.65240       66.87189
H         82.33305       95.20026       65.68232
H         81.75898       95.74133       64.17276
H         82.61469       96.80489       65.20216
N         76.09792      102.06958       64.76603
C         75.95044      103.48165       64.43473
C         74.63035      103.98680       65.00830
O         74.64426      104.99726       65.69760
C         76.19202      103.72713       62.92508
C         75.43846      102.85257       61.95989
O         74.10414      102.90877       61.87044
O         76.05201      102.11855       61.20179
H         75.40959      101.42581       64.36596
H         76.73984      104.09441       64.92652
H         77.27516      103.53847       62.74542
H         76.00286      104.79612       62.68770
N         73.48146      103.26441       64.88162
C         72.23701      103.57225       65.57447
C         71.05820      103.72326       64.63764
O         69.95346      103.90495       65.12843
H         73.50118      102.40345       64.32940
H         72.32353      104.49825       66.18324
H         72.02051      102.73246       66.26978
N         71.21663      103.70866       63.28417
C         70.14874      103.97098       62.33100
C         70.09823      102.91390       61.24058
O         71.12744      102.37018       60.87628
C         70.44030      105.33162       61.68102
C         70.44497      106.42307       62.72347
N         71.57843      107.10554       63.00932
O         69.41560      106.67924       63.33021
H         72.15693      103.61221       62.89805
H         69.15829      104.02234       62.83568
H         69.67730      105.57097       60.91052
H         71.43293      105.27811       61.17837
H         72.46302      106.89213       62.52588
H         71.57597      107.83984       63.73267
N         68.93275      102.68098       60.57824
C         68.80657      101.79393       59.43011
C         69.01910      100.34118       59.78161
O         68.35260       99.86536       60.69092
H         68.09119      103.20151       60.86990
H         69.48621      102.12077       58.61443
H         67.76440      101.87784       59.05185
N         69.85668       99.54431       59.04374
C         69.95203       98.10330       59.28258
C         70.83599       97.78901       60.51088
O         70.61332       98.66154       61.56754
C         70.55130       97.34091       58.07837
C         69.86417       97.57887       56.75382
C         68.47856       97.39644       56.59913
C         70.63220       97.95369       55.63718
C         67.87592       97.59553       55.35132
C         70.03068       98.13723       54.39054
C         68.65258       97.96184       54.24173
O         68.08940       98.14292       53.03013
H         70.33382       99.95217       58.22542
H         68.92025       97.71793       59.44185
H         70.48386       96.25207       58.29266
H         71.62867       97.59642       57.98532
H         67.86207       97.10325       57.43852
H         71.70378       98.08510       55.72407
H         66.80718       97.45802       55.24585
H         70.63974       98.41078       53.53797
H         67.14045       98.02805       52.88010
N         70.75447       96.36920       60.90217
C         71.42342       95.91957       62.14561
C         72.89833       96.31620       62.14239
O         73.19769       97.49607       62.15271
C         70.68731       96.36806       63.45581
C         71.28989       95.71230       64.72762
C         69.16836       96.10831       63.39680
C         71.19132       94.18538       64.80074
H         69.78026       95.99802       60.83484
H         71.35965       94.81379       62.10917
H         70.81405       97.46076       63.59243
H         70.77269       96.13199       65.61882
H         72.35838       95.97930       64.80430
H         68.68601       96.41670       64.34819
H         68.69244       96.71334       62.59771
H         68.94773       95.03762       63.20679
H         71.76539       93.70407       63.98446
H         71.62708       93.84150       65.76207
H         70.13641       93.84636       64.76479
N         73.87644       95.36703       62.10529
C         75.30296       95.71246       62.03003
C         76.18699       94.64888       61.38504
O         77.38321       94.90633       61.27930
C         75.84361       96.06234       63.42505
O         75.78618       94.95553       64.28445
H         73.57271       94.39077       62.13850
H         75.41370       96.60347       61.37644
H         75.29809       96.92057       63.85124
H         76.90216       96.39430       63.35418
H         74.83305       94.83466       64.53184
N         75.72084       93.45775       60.91517
C         76.59103       92.46180       60.30638
C         77.20952       92.98067       59.01686
O         76.69262       93.94385       58.46768
C         75.76794       91.21350       59.98870
H         74.72531       93.22016       60.98590
H         77.38656       92.21276       61.04083
H         76.37781       90.47608       59.46080
H         75.36801       90.77127       60.92674
H         74.91865       91.46841       59.31918
N         78.31489       92.41898       58.44120
C         79.17364       91.40640       59.05604
C         79.92246       90.63725       57.97469
O         80.54145       91.28925       57.14365
C         80.20185       92.11287       59.94888
H         78.66648       92.88335       57.58813
H         78.60102       90.72359       59.70670
H         79.69454       92.68523       60.75301
H         80.87232       91.36521       60.42475
H         80.81978       92.82204       59.35630
N         79.99427       89.27455       57.89835
C         79.41380       88.31369       58.83323
C         77.90426       88.30925       58.76716
O         77.27717       88.37510       59.81472
C         79.96068       86.90051       58.53020
C         79.48485       85.85557       59.55335
C         80.13932       84.52737       59.30891
O         80.91424       83.97427       60.26175
O         79.97147       83.94101       58.25157
H         80.57164       88.89331       57.13112
H         79.75306       88.56070       59.86493
H         81.07135       86.95031       58.58184
H         79.67217       86.58413       57.50324
H         78.38228       85.73033       59.49550
H         79.74727       86.19987       60.57762
N         77.25734       88.20746       57.57168
C         75.81366       88.21321       57.43912
H         75.29622       88.29257       58.41836
H         75.50715       89.07927       56.81479
H         75.48398       87.27791       56.94145
H         77.81171       88.14327       56.70476
Ca        72.39652      100.02971       61.17912
O         76.28520       99.12725       61.66956
H         76.32052       99.79477       62.39829
H         77.07534       98.55162       61.82433
O         74.02874       98.01243       59.31335
H         74.99102       98.22166       59.41045
H         74.00242       97.26154       58.66913
O         73.78158      101.25880       58.63217
H         73.19523      102.03637       58.81109
H         73.19198      100.60198       58.18311

Ca 1.0



