%chk=apoCaM-CA-Ng.loop1.water2.frame1348.chk
%nprocshared=20
%mem=10GB
%nosave
#b3lyp/svp scf=(tight,noincore,xqc) Test 
#IOP(5/87=12) Density=Current Pop=(MK,readradii) iop(6/33=2) iop(6/42=6)

apoCaM-CA-Ng.loop1.water2.frame1348 

   0  1 
C         64.98691       33.39872      107.48415
C         65.43667       34.71667      108.02458
O         65.75197       35.59154      107.22929
H         64.06336       33.58921      106.89948
H         65.75622       32.94669      106.82361
H         64.74728       32.69052      108.30287
N         65.44129       34.94981      109.37284
C         65.61688       36.28597      109.94637
C         67.10126       36.61240      110.18052
O         67.46131       37.21742      111.18151
C         64.71328       36.46213      111.20082
C         63.31749       35.90962      110.98788
O         63.07321       34.59498      111.17527
O         62.39382       36.64950      110.69499
H         65.10697       34.18987      109.97910
H         65.22787       37.01406      109.20498
H         64.64830       37.54581      111.43808
H         65.13312       35.95249      112.09629
N         68.01917       36.15920      109.28244
C         69.46483       36.25714      109.36075
C         69.95289       37.68542      109.12229
O         70.75425       38.12282      109.93539
C         70.08648       35.17254      108.44042
C         69.68498       33.74377      108.90450
C         70.19856       32.68554      107.92503
C         69.83452       31.27146      108.39775
N         70.37832       30.25351      107.49582
H         67.67918       35.60914      108.49927
H         69.79900       35.97346      110.38478
H         71.19476       35.23282      108.46402
H         69.73450       35.31996      107.39874
H         68.57997       33.63092      108.97830
H         70.10967       33.54475      109.91513
H         71.30141       32.77430      107.84665
H         69.74377       32.86557      106.92458
H         68.72636       31.17645      108.44830
H         70.24890       31.10775      109.41717
H         70.03916       29.31045      107.79483
H         70.07107       30.42409      106.51077
H         71.42323       30.26230      107.54257
N         69.52258       38.54555      108.14729
C         68.63473       38.28796      107.01382
C         67.30730       38.98294      107.16362
O         67.14574       39.84848      108.01072
C         69.29668       38.76113      105.71065
C         70.00076       40.08207      105.88786
O         69.37618       41.26143      106.16251
O         71.22018       40.06803      105.80849
H         69.85391       39.51608      108.25321
H         68.40405       37.20812      106.93067
H         68.58017       38.80621      104.86358
H         70.07025       38.01385      105.42521
N         66.26311       38.52868      106.41520
C         64.88791       38.91760      106.64371
C         64.54672       40.32017      106.24215
O         65.37275       41.02807      105.69343
H         66.43049       37.75655      105.75176
H         64.66964       38.78953      107.72388
H         64.22315       38.24427      106.06639
N         63.30109       40.78798      106.54028
C         62.85727       42.15539      106.28150
C         61.44365       42.14645      105.69716
O         60.73292       41.17529      105.91906
C         62.90149       42.96602      107.60235
C         64.26066       42.83648      108.24492
O         65.35993       43.19476      107.52846
O         64.35881       42.45428      109.40298
H         62.66913       40.15212      107.04782
H         63.56025       42.62623      105.56571
H         62.10395       42.62693      108.30467
H         62.72912       44.03796      107.40312
N         60.90220       43.18657      104.99682
C         61.57769       44.43074      104.68843
C         62.74478       44.30289      103.73730
O         62.81832       43.38019      102.93742
H         59.91544       43.10923      104.70469
H         61.92551       44.88690      105.62901
H         60.86590       45.16258      104.25497
N         63.72604       45.23874      103.83587
C         64.96427       45.27644      103.07139
C         65.73550       43.97220      103.21700
O         66.04711       43.57213      104.32845
C         65.82291       46.48934      103.54081
C         65.13726       47.83420      103.21541
O         67.10096       46.45878      102.95891
H         63.58167       45.97202      104.54300
H         64.73842       45.43203      101.99440
H         65.96873       46.42667      104.63929
H         66.99703       46.68685      102.00072
H         64.16328       47.96095      103.73214
H         65.79271       48.68227      103.50534
H         64.95240       47.89449      102.12279
N         66.11040       43.30635      102.08110
C         66.93528       42.10769      101.96368
C         68.21843       42.25761      102.74876
O         68.19193       42.18309      103.96648
C         66.18628       40.79318      102.28002
C         64.84236       40.65336      101.50923
C         67.12769       39.58660      102.04732
C         64.88754       40.59513       99.97656
H         65.84932       43.73229      101.18142
H         67.20316       42.03043      100.88780
H         65.90317       40.79510      103.34764
H         64.18558       41.50200      101.78952
H         64.35185       39.72374      101.86561
H         67.95448       39.60647      102.78839
H         66.59780       38.62063      102.16927
H         67.59672       39.61647      101.03986
H         65.50462       39.74541       99.62220
H         63.85078       40.43899       99.59806
H         65.25672       41.54444       99.53647
N         69.38891       42.47479      102.09690
C         70.65407       42.67871      102.78163
C         71.20996       44.08119      102.52356
O         72.30835       44.36690      102.97915
C         71.63247       41.54371      102.39148
C         72.10793       41.59959      100.94802
O         71.01573       40.29468      102.55446
H         69.38098       42.51817      101.06780
H         70.51412       42.60328      103.87693
H         72.53529       41.61765      103.04227
H         70.89397       40.15539      103.51618
H         71.25943       41.43714      100.25166
H         72.59886       42.56764      100.72988
H         72.84212       40.77887      100.79759
N         70.50471       45.01112      101.80799
C         70.99829       46.35437      101.51466
C         71.20226       47.15394      102.79544
O         70.24124       47.47172      103.48454
C         70.06076       47.03030      100.48053
C         70.26694       48.53383      100.33245
O         70.29620       46.43300       99.22581
H         69.57764       44.75768      101.43936
H         71.98645       46.26224      101.01962
H         68.99979       46.90012      100.79886
H         69.49457       45.91748       98.96006
H         71.29166       48.75051       99.97181
H         69.52243       48.92239       99.60458
H         70.09080       49.05532      101.29722
N         72.48333       47.47060      103.16672
C         72.89442       48.14782      104.39170
C         72.08476       47.64451      105.57189
O         71.34434       48.39429      106.19265
C         72.95693       49.67613      104.19271
C         73.87228       50.04284      103.00273
C         74.01373       51.56413      102.83819
C         75.15516       51.89664      101.86089
N         75.57072       53.29756      101.96154
H         73.25215       47.13838      102.56799
H         73.94871       47.85073      104.59886
H         73.40449       50.12076      105.11422
H         71.94689       50.10002      104.03998
H         73.49787       49.60100      102.05342
H         74.87959       49.61121      103.20690
H         74.26981       51.99058      103.82916
H         73.05403       52.01580      102.49588
H         74.84615       51.65278      100.81988
H         76.03857       51.27302      102.11967
H         74.81885       53.93896      101.62496
H         75.81899       53.52875      102.95245
H         76.43020       53.43511      101.38084
N         72.16669       46.32058      105.87742
C         71.32061       45.62815      106.83854
C         70.98864       44.22962      106.35460
O         69.81304       43.99444      106.11629
C         71.93556       45.56775      108.24475
C         71.54754       46.76652      109.09966
C         72.17311       46.61484      110.45138
O         71.40789       46.35859      111.52902
O         73.38600       46.67937      110.57090
H         72.78935       45.75892      105.28552
H         70.33590       46.14232      106.89649
H         73.03787       45.46333      108.18491
H         71.52393       44.68172      108.78600
H         70.43634       46.77089      109.19672
H         71.87147       47.72189      108.64275
N         71.88806       43.21480      106.20257
C         73.31606       43.25198      106.41201
H         73.79543       43.94070      105.69755
H         73.56693       43.49976      107.45748
H         73.73587       42.24171      106.21054
H         71.52030       42.31611      105.90562
Ca        67.38066       42.25449      106.83613
O         67.27466       45.35634      106.78104
H         67.98110       46.04786      106.80523
H         66.42868       45.86892      106.79113
O         68.83059       42.76998      108.92362
H         69.43944       42.00245      109.06188
H         68.62143       43.12207      109.82181

Ca 1.0



