%chk=apoCaM-CA-Ng.loop1.water3.frame499.chk
%nprocshared=20
%mem=10GB
%nosave
#b3lyp/svp scf=(tight,noincore,xqc) Test 
#IOP(5/87=12) Density=Current Pop=(MK,readradii) iop(6/33=2) iop(6/42=6)

apoCaM-CA-Ng.loop1.water3.frame499 

   0  1 
C         68.72446       41.23808       64.95792
C         68.61852       41.85693       63.59615
O         67.60861       42.47223       63.28711
H         69.59025       41.67823       65.49733
H         67.80326       41.41813       65.55028
H         68.88163       40.14342       64.85709
N         69.65739       41.73792       62.72776
C         69.68511       42.33618       61.39689
C         68.72300       41.68995       60.39164
O         68.81227       42.06250       59.23905
C         71.12613       42.27657       60.82732
C         72.08905       43.07509       61.66478
O         71.92228       44.27567       61.81652
O         73.15073       42.47476       62.23423
H         70.49990       41.24271       63.06144
H         69.43581       43.41440       61.47975
H         71.15462       42.71454       59.80564
H         71.46153       41.21911       60.75726
N         67.77504       40.75697       60.69803
C         66.96898       40.09868       59.66351
C         65.49096       40.46739       59.73042
O         64.92705       40.32583       60.80641
C         67.10888       38.57178       59.81733
C         68.50761       38.07531       59.43116
C         68.63150       36.56571       59.68784
C         69.95706       35.97092       59.18464
N         70.03028       35.94903       57.72097
H         67.62925       40.46632       61.67306
H         67.33845       40.36860       58.67459
H         66.38560       38.06436       59.14014
H         66.86063       38.28429       60.86355
H         69.29236       38.60420       60.01496
H         68.64824       38.30298       58.35611
H         67.79301       36.01468       59.20877
H         68.56596       36.40571       60.78673
H         70.02095       34.92206       59.54995
H         70.81921       36.53327       59.60662
H         70.91565       35.47479       57.43142
H         69.22296       35.40881       57.33148
H         70.03256       36.91488       57.32562
N         64.73144       40.84731       58.63866
C         65.15881       41.05568       57.24239
C         65.96527       39.89137       56.67549
O         67.13773       40.06874       56.38334
C         65.86096       42.42248       57.05358
C         64.92038       43.59778       57.18739
O         63.72547       43.43446       57.37983
O         65.39385       44.84728       57.02462
H         63.72059       40.96967       58.80887
H         64.26017       41.13639       56.59250
H         66.25017       42.48847       56.01452
H         66.71535       42.51848       57.74967
N         65.42579       38.67371       56.41236
C         64.00287       38.39544       56.50036
C         63.65584       37.02281       55.94863
O         64.55065       36.22534       55.70453
H         66.06620       37.96027       56.03248
H         63.49805       39.13477       55.84251
H         63.63017       38.50668       57.54110
N         62.37950       36.67183       55.62841
C         61.21224       37.53045       55.78456
C         60.79811       38.07709       54.43597
O         60.86996       37.36664       53.44178
C         60.04852       36.80860       56.49281
C         59.47863       35.63894       55.72971
O         58.31838       35.66745       55.35179
O         60.22151       34.54215       55.49044
H         62.25421       35.76543       55.15618
H         61.44803       38.39796       56.43573
H         59.23800       37.55622       56.64817
H         60.38194       36.46149       57.49384
N         60.34936       39.35680       54.33530
C         59.99993       39.97175       53.07250
C         61.23495       40.22792       52.24936
O         61.31490       39.77644       51.11567
H         60.23968       39.92250       55.19099
H         59.53846       40.96394       53.27140
H         59.25225       39.35160       52.53108
N         62.22202       41.01554       52.76081
C         63.37613       41.45252       51.97997
C         64.31096       40.28294       51.67249
O         64.21099       39.24923       52.31936
C         64.16499       42.56624       52.73835
C         63.28947       43.75060       53.17467
O         65.17202       43.07097       51.90760
H         62.09419       41.36560       53.72040
H         62.98634       41.88491       51.03129
H         64.61786       42.10788       53.65070
H         65.78898       43.59134       52.48457
H         62.50671       43.44580       53.88915
H         63.91832       44.50170       53.70031
H         62.81627       44.23130       52.29421
N         65.27609       40.40584       50.71271
C         66.32777       39.41180       50.47796
C         67.71919       40.00014       50.74841
O         68.68546       39.25230       50.67976
C         66.21644       38.76787       49.06234
C         66.26734       39.81399       47.91957
C         64.94419       37.90154       48.98885
C         66.35887       39.18430       46.52523
H         65.28545       41.26401       50.14230
H         66.23465       38.58123       51.21215
H         67.08246       38.07783       48.94589
H         67.16793       40.45011       48.04902
H         65.36838       40.46614       47.95613
H         64.95250       37.14618       49.80415
H         64.03083       38.52430       49.09046
H         64.89187       37.33445       48.03823
H         67.26943       38.55272       46.44823
H         65.46707       38.56972       46.28900
H         66.42064       39.98623       45.75985
N         67.89375       41.30218       51.12418
C         69.15687       41.88830       51.55009
C         69.00144       42.31511       52.99698
O         68.13026       43.12257       53.29233
C         69.51577       43.11176       50.67650
C         69.79314       42.71302       49.22854
O         70.66724       43.73869       51.18808
H         67.08652       41.92594       51.17218
H         69.98677       41.15104       51.47763
H         68.65258       43.82312       50.67459
H         70.38810       44.61200       51.57122
H         70.65623       42.01423       49.18433
H         68.90552       42.22613       48.77540
H         70.04197       43.61893       48.63548
N         69.81061       41.79814       53.96144
C         69.67832       42.14165       55.37648
C         69.89162       43.63339       55.63529
O         70.19668       44.38056       54.71614
C         70.61687       41.25372       56.24547
C         72.10556       41.51235       56.00230
O         70.35170       39.89664       55.99427
H         70.51666       41.10339       53.67686
H         68.63941       41.90915       55.68332
H         70.44608       41.46368       57.32454
H         69.63125       39.61877       56.61612
H         72.70400       40.85126       56.66523
H         72.38861       41.29654       54.95230
H         72.36202       42.56544       56.23986
N         69.74564       44.12254       56.89832
C         69.91038       45.51405       57.27760
C         68.66148       45.96351       58.04289
O         67.94802       46.82904       57.55729
C         71.22645       45.62157       58.08000
C         71.69883       47.05643       58.33509
C         73.09884       47.03996       58.97511
C         73.66022       48.45589       59.15198
N         75.01052       48.41613       59.71606
H         69.54085       43.46540       57.64649
H         70.02924       46.13658       56.36292
H         72.01355       45.13035       57.46370
H         71.16016       45.06103       59.03617
H         70.97730       47.59038       58.98967
H         71.76447       47.58561       57.35912
H         73.79357       46.47256       58.31574
H         73.05418       46.52851       59.96188
H         72.99415       49.03981       59.82394
H         73.69812       48.96340       58.16208
H         75.65354       47.89364       59.07681
H         75.36693       49.39328       59.82288
H         74.99775       47.95495       60.65460
N         68.33652       45.39498       59.24450
C         67.13314       45.69004       60.02748
C         67.52018       46.46820       61.26519
O         68.38458       46.02536       62.01076
C         66.45294       44.36624       60.47227
C         65.24948       44.53206       61.42676
C         64.02506       45.09328       60.77299
O         63.54721       46.15156       61.14873
O         63.39111       44.36722       59.83719
H         68.99665       44.71692       59.64625
H         66.40232       46.28163       59.43352
H         67.20064       43.78411       61.03774
H         66.15480       43.75950       59.59931
H         65.53916       45.15340       62.30016
H         64.96721       43.53283       61.82321
N         66.85801       47.61262       61.58442
C         67.13066       48.33963       62.80305
H         68.17724       48.70748       62.79931
H         66.43957       49.20460       62.88878
H         66.97120       47.67555       63.68062
H         66.10567       47.95692       60.96847
Ca        61.37697       44.96413       59.01438
O         62.00600       47.05939       57.06778
H         62.23169       47.82037       57.65899
H         62.25473       47.36262       56.15911
O         58.83168       46.06006       57.82459
H         58.30992       45.30835       57.44635
H         58.60766       46.83446       57.25010
O         60.82581       44.41648       55.76529
H         60.38957       43.91433       55.03181
H         61.42799       45.05376       55.30530

Ca 1.0



