%chk=apoCaM-CA-Ng.loop3.water2.frame822.chk
%nprocshared=20
%mem=10GB
%nosave
#b3lyp/svp scf=(tight,noincore,xqc) Test 
#IOP(5/87=12) Density=Current Pop=(MK,readradii) iop(6/33=2) iop(6/42=6)

apoCaM-CA-Ng.loop3.water2.frame822 

   0  1 
C         62.01028      104.61696       77.71681
C         63.13447      105.59678       77.57452
O         63.86753      105.81720       78.52687
H         61.04418      105.11394       77.49412
H         62.16578      103.78467       76.99600
H         61.98074      104.19358       78.74256
N         63.35118      106.19534       76.37348
C         64.50316      107.04999       76.10282
C         64.45681      108.33381       76.93152
O         63.37781      108.73038       77.35086
C         64.55777      107.29988       74.56838
C         65.86044      107.76465       73.98750
O         65.96067      107.89468       72.77885
O         66.93343      107.98533       74.75363
H         62.70887      105.95638       75.60092
H         65.38924      106.46791       76.40527
H         63.73788      107.99140       74.27708
H         64.37676      106.32916       74.06049
N         65.60010      109.02471       77.21967
C         65.64738      110.27415       77.97325
C         66.04845      111.43691       77.05368
O         65.92434      112.58236       77.45970
C         66.60114      110.06166       79.17563
C         66.61104      111.18000       80.22965
C         67.47151      110.76048       81.43865
C         67.41883      111.79740       82.56981
N         68.18480      111.34478       83.73330
H         66.49851      108.65012       76.90099
H         64.62981      110.50586       78.35591
H         67.63621      109.88380       78.80531
H         66.26192      109.13524       79.69107
H         65.56864      111.34529       80.57748
H         67.00409      112.12441       79.79705
H         68.52678      110.61196       81.11838
H         67.08651      109.79607       81.83794
H         66.36046      111.95221       82.87643
H         67.82789      112.76710       82.21049
H         68.11784      112.06325       84.49027
H         67.79376      110.44384       84.09462
H         69.19049      111.21341       83.47853
N         66.50892      111.20392       75.78556
C         66.81073      112.21200       74.77744
C         66.05693      111.94114       73.46088
O         66.20777      112.73502       72.54224
C         68.34622      112.27372       74.56288
C         68.99719      110.91809       74.37600
O         68.62659      110.11799       73.36237
O         69.82341      110.52301       75.18244
H         66.68767      110.24422       75.49176
H         66.48760      113.21992       75.12164
H         68.78866      112.73515       75.47299
H         68.58093      112.94307       73.70662
N         65.20960      110.87782       73.29460
C         64.42836      110.63606       72.08484
C         65.21632      110.31620       70.81674
O         64.57228      110.19557       69.78439
H         65.03348      110.23958       74.07904
H         63.80107      111.53329       71.89538
H         63.73775      109.78184       72.26585
N         66.57485      110.16669       70.78975
C         67.34458      109.97076       69.55931
C         68.15373      108.68594       69.55367
O         69.02656      108.52212       70.39235
C         68.36372      111.11361       69.38191
C         67.72563      112.46132       69.21131
N         68.01679      113.47195       70.06209
O         66.96210      112.65346       68.27713
H         67.09247      110.23603       71.66568
H         66.67372      109.96539       68.67300
H         68.97280      110.91627       68.47179
H         69.05570      111.12604       70.25486
H         68.66911      113.33150       70.84785
H         67.59767      114.40317       69.92825
N         68.00457      107.79044       68.53779
C         68.93759      106.70410       68.29307
C         69.02165      105.72448       69.42789
O         68.01234      105.12406       69.77033
H         67.26065      107.93831       67.83951
H         69.94033      107.13994       68.09093
H         68.62578      106.15436       67.37915
N         70.22672      105.46778       70.01907
C         70.39412      104.44821       71.04800
C         69.88609      104.94540       72.42878
O         68.76941      105.76834       72.27830
C         71.87886      104.02972       71.14659
C         72.37322      103.49338       69.81934
C         73.31038      104.21967       69.06506
C         71.88676      102.27411       69.31394
C         73.73838      103.74585       67.82120
C         72.32577      101.79609       68.07431
C         73.24613      102.53215       67.32082
O         73.64617      102.06727       66.11975
H         71.06413      105.94617       69.65270
H         69.81041      103.55589       70.72782
H         72.03314      103.25260       71.92703
H         72.46662      104.92575       71.44538
H         73.69513      105.16379       69.42916
H         71.16929      101.69235       69.87920
H         74.44837      104.32589       67.24524
H         71.94501      100.85558       67.69534
H         74.26961      102.55344       65.56108
N         69.63423      103.78851       73.33138
C         68.50724      103.80088       74.29440
C         68.72167      104.89097       75.32611
O         68.62826      106.05553       74.99292
C         67.08013      103.83351       73.62873
C         65.92414      103.86694       74.65611
C         66.88942      102.68009       72.63015
C         65.80994      102.66532       75.58776
H         69.65458      102.86835       72.83428
H         68.57121      102.82960       74.83024
H         66.93553      104.76726       73.06050
H         64.96121      103.97220       74.10845
H         66.05080      104.76530       75.27985
H         67.62829      102.74656       71.80607
H         67.00282      101.69602       73.12942
H         65.88117      102.73748       72.16690
H         65.62284      101.73639       75.01323
H         66.72282      102.55482       76.20577
H         64.94867      102.82959       76.27084
N         69.05954      104.57293       76.60711
C         69.29458      105.59852       77.62871
C         70.05040      105.12931       78.86904
O         70.45422      105.99847       79.63387
C         67.96476      106.22906       78.05576
O         67.14353      105.24534       78.62503
H         69.19553      103.58000       76.79941
H         69.95237      106.37119       77.17441
H         67.46867      106.65399       77.16827
H         68.15116      107.04735       78.78865
H         66.38109      105.72384       79.03881
N         70.29886      103.82011       79.16006
C         71.10228      103.41116       80.30469
C         72.55421      103.86339       80.11416
O         72.89371      104.26399       79.00873
C         71.01868      101.88251       80.42280
H         69.90857      103.07179       78.58026
H         70.66238      103.87344       81.21410
H         69.95701      101.57784       80.54666
H         71.41627      101.40776       79.50037
H         71.57443      101.48543       81.27796
N         73.49345      103.86243       81.10744
C         73.23729      103.58736       82.51402
C         74.51529      103.09805       83.19824
O         75.50614      103.81370       83.14170
C         72.74933      104.86446       83.20709
H         74.42693      104.22908       80.86042
H         72.42013      102.86650       82.61765
H         72.53144      104.65240       84.27658
H         73.51323      105.66797       83.14665
H         71.81521      105.23384       82.73504
N         74.59727      101.93231       83.91024
C         73.47573      101.02568       84.11890
C         73.21146      100.17070       82.87950
O         72.19260       99.49503       82.83639
C         73.75018      100.12240       85.34597
C         72.50651       99.44749       85.96119
C         71.60869      100.42707       86.68110
O         71.44747      100.32518       88.01456
O         71.01734      101.30658       86.07649
H         75.48776      101.73287       84.39367
H         72.60753      101.65846       84.36788
H         74.20840      100.72561       86.16054
H         74.49480       99.35060       85.04846
H         72.87175       98.72353       86.72022
H         71.92813       98.87474       85.20928
N         74.10280      100.11472       81.84485
C         73.88733       99.28533       80.67793
H         72.98044       99.61691       80.13360
H         74.75901       99.36273       79.99241
H         73.77202       98.22236       80.97916
H         74.98303      100.64801       81.88287
Ca        69.15471      107.91663       73.04918
O         71.28950      107.74585       75.22098
H         71.65123      107.96117       76.11694
H         71.63637      106.84009       75.02141
O         71.91624      108.62552       72.09642
H         72.34439      107.83556       72.51235
H         71.91563      108.42530       71.12688

Ca 1.0



