%chk=apoCaM-CA-Ng.loop3.water5.frame429.chk
%nprocshared=20
%mem=10GB
%nosave
#b3lyp/svp scf=(tight,noincore,xqc) Test 
#IOP(5/87=12) Density=Current Pop=(MK,readradii) iop(6/33=2) iop(6/42=6)

apoCaM-CA-Ng.loop3.water5.frame429 

   0  1 
C         82.67725       47.05146       93.04853
C         81.69792       45.91582       93.08473
O         81.27918       45.52380       94.16453
H         83.62062       46.71232       92.57005
H         82.25420       47.89456       92.46444
H         82.90985       47.40517       94.07595
N         81.30635       45.32125       91.92310
C         80.40277       44.17575       91.86560
C         79.18406       44.50232       91.00206
O         79.13693       45.57441       90.41287
C         81.22170       42.98654       91.31568
C         80.49858       41.67382       91.34025
O         80.32380       41.05272       90.30597
O         80.05768       41.16452       92.50652
H         81.70194       45.67267       91.03629
H         80.04319       43.92059       92.88618
H         82.12863       42.86193       91.94653
H         81.55564       43.22028       90.27974
N         78.15110       43.61530       90.87909
C         76.99711       43.85988       90.01521
C         76.15049       45.01117       90.52542
O         76.34556       45.45711       91.64909
C         76.06208       42.62237       89.96495
C         76.68555       41.30931       89.46630
C         77.17370       41.38714       88.01324
C         77.55738       40.00818       87.44499
N         78.68122       39.39276       88.15170
H         78.19692       42.73135       91.39983
H         77.36850       44.09430       88.99372
H         75.18828       42.84393       89.31331
H         75.67258       42.43614       90.99128
H         75.88682       40.53760       89.52681
H         77.50906       40.99552       90.13738
H         78.03563       42.08367       87.93478
H         76.34594       41.77927       87.38294
H         77.83453       40.13792       86.37583
H         76.67563       39.33055       87.48804
H         78.43551       39.19772       89.14814
H         78.90977       38.48151       87.69314
H         79.51955       40.01371       88.09655
N         75.14211       45.50383       89.74861
C         74.15550       46.46245       90.23034
C         72.75107       45.90123       90.00260
O         72.60842       44.88991       89.32568
C         74.37112       47.81121       89.51449
C         73.53273       48.91228       90.09356
O         73.66183       49.22640       91.26630
O         72.63654       49.56057       89.33092
H         75.05425       45.16194       88.77794
H         74.29619       46.61796       91.32231
H         74.16671       47.69633       88.42967
H         75.43358       48.11628       89.63093
N         71.65921       46.49233       90.56145
C         70.30417       46.01397       90.34600
C         69.88113       46.22927       88.91568
O         69.50372       45.27515       88.25074
H         71.78488       47.30055       91.18636
H         69.60686       46.59047       90.98678
H         70.22382       44.94356       90.63881
N         69.92537       47.48325       88.38256
C         69.52301       47.80212       87.01658
C         70.71701       48.23648       86.17453
O         70.53241       48.90990       85.16975
C         68.35534       48.81826       87.03653
C         68.65680       50.16739       87.64766
N         67.65545       51.06161       87.80756
O         69.78670       50.46083       88.00514
H         70.27685       48.24669       88.97745
H         69.12114       46.89687       86.51105
H         67.53159       48.35892       87.62575
H         67.98082       48.98259       86.00306
H         66.69401       50.83550       87.51543
H         67.83490       51.97723       88.23841
N         71.96204       47.74826       86.45008
C         73.12166       47.94234       85.59463
C         73.69934       49.34325       85.56064
O         74.68809       49.51285       84.86143
H         72.08539       47.11792       87.25526
H         72.86888       47.61374       84.56338
H         73.93598       47.28079       85.96331
N         73.17874       50.39126       86.26374
C         73.77970       51.72472       86.23475
C         72.88671       52.71667       86.95074
O         72.65657       52.55481       88.14039
C         75.16997       51.72285       86.91810
C         75.79369       53.09990       86.90555
C         76.13434       53.71548       85.69004
C         76.02774       53.78499       88.10927
C         76.69510       54.99592       85.67993
C         76.58456       55.06601       88.09746
C         76.91941       55.67682       86.88101
O         77.45375       56.91413       86.85427
H         72.32294       50.24822       86.81682
H         73.87929       52.03791       85.17211
H         75.86777       51.01955       86.42095
H         75.03981       51.36874       87.96588
H         75.96529       53.20449       84.75080
H         75.77178       53.33410       89.05708
H         76.95242       55.46014       84.73658
H         76.75095       55.58360       89.03390
H         77.61948       57.41995       87.66265
N         72.33740       53.76650       86.27791
C         71.41386       54.69354       86.91096
C         70.01886       54.18453       86.64886
O         69.35488       53.80367       87.59888
C         71.64988       56.15444       86.42310
C         73.08466       56.66213       86.72973
C         70.59443       57.12356       86.99082
C         73.44100       56.74410       88.21848
H         72.49202       53.84463       85.26070
H         71.54882       54.67701       88.01168
H         71.53856       56.17500       85.31615
H         73.20068       57.67857       86.29308
H         73.82480       56.00216       86.22907
H         69.57765       56.82501       86.66850
H         70.60613       57.13980       88.09915
H         70.77264       58.15138       86.60799
H         74.46958       57.14613       88.32689
H         72.75633       57.42720       88.76127
H         73.41829       55.74181       88.69027
N         69.51818       54.11651       85.38598
C         68.18701       53.60177       85.08643
C         67.10447       54.39086       85.80891
O         66.28017       53.77425       86.46931
C         67.94282       53.58475       83.56788
O         68.02729       54.87537       83.02933
H         70.11446       54.43368       84.60627
H         68.12857       52.53939       85.41602
H         66.93693       53.15659       83.36031
H         68.71563       52.92916       83.10250
H         68.07179       54.76029       82.04452
N         67.06170       55.75710       85.75111
C         66.02162       56.58726       86.36545
C         65.90738       56.46970       87.89214
O         65.00936       57.08613       88.44870
C         64.67405       56.29198       85.69371
H         67.79427       56.24564       85.21531
H         66.25516       57.65239       86.14255
H         63.89680       56.99230       86.06633
H         64.76640       56.43686       84.59572
H         64.33629       55.25466       85.89101
N         66.77629       55.72968       88.63728
C         66.67942       55.53755       90.08146
C         67.90647       56.12011       90.74650
O         69.00567       55.85653       90.28166
C         66.57225       54.04363       90.38167
H         67.56321       55.27224       88.16985
H         65.76863       56.01860       90.50074
H         65.66348       53.62502       89.89891
H         67.46094       53.50527       89.99628
H         66.49626       53.87853       91.47825
N         67.78764       56.95142       91.82676
C         68.90525       57.66232       92.44860
C         69.46207       58.74633       91.52989
O         70.42811       59.39120       91.91557
C         70.01609       56.70619       92.95991
C         69.51080       55.76153       94.05896
C         70.61962       54.87914       94.56232
O         71.73202       55.42226       95.09394
O         70.51138       53.66537       94.50803
H         66.84949       57.11600       92.22210
H         68.52462       58.20981       93.33992
H         70.83578       57.31813       93.39712
H         70.45862       56.12157       92.13225
H         68.68041       55.13369       93.66920
H         69.13107       56.36314       94.91277
N         68.87635       59.06148       90.33661
C         69.37021       60.12909       89.49715
H         70.40819       59.90840       89.17298
H         68.72549       60.22897       88.59761
H         69.34514       61.08946       90.05556
H         68.03489       58.56860       90.00998
Ca        71.38557       51.17010       90.29489
O         69.61874       49.23414       91.56083
H         68.74810       48.94929       91.18523
H         69.75387       48.65851       92.35459
O         72.30657       51.50744       93.20389
H         71.42231       51.24977       93.56678
H         72.95419       50.95723       93.71154
O         74.11549       52.40397       90.94027
H         74.96084       51.89099       90.98262
H         74.37118       53.32982       91.18060
O         68.99226       52.23347       91.65401
H         68.42377       51.73020       92.28853
H         69.54554       52.82127       92.22529
O         71.66975       54.10537       90.84968
H         72.11280       54.97251       90.67371
H         70.91845       54.07178       90.20658

Ca 1.0



