%chk=apoCaM-CA-Ng.loop4.water4.frame123.chk
%nprocshared=20
%mem=10GB
%nosave
#b3lyp/svp scf=(tight,noincore,xqc) Test 
#IOP(5/87=12) Density=Current Pop=(MK,readradii) iop(6/33=2) iop(6/42=6)

apoCaM-CA-Ng.loop4.water4.frame123 

   -3  1 
C         33.90185       59.68510       95.74097
C         33.38139       61.01877       96.17718
O         33.89302       61.55368       97.13692
H         34.74118       59.36247       96.39607
H         33.09241       58.93019       95.79082
H         34.28161       59.76175       94.70037
N         32.39048       61.63650       95.48167
C         31.88243       62.97945       95.75301
C         32.98593       64.01437       95.77329
O         33.21624       64.64426       96.78936
C         30.76124       63.04309       96.82562
C         30.89362       62.86907       98.32668
O         32.02852       62.83148       99.05715
O         29.84427       62.80357       98.94807
H         32.02361       61.15487       94.64634
H         31.28350       63.25427       94.85253
H         30.03002       62.26769       96.50258
H         30.24996       64.02479       96.69992
N         33.68216       64.22094       94.61301
C         34.74617       65.18488       94.31785
C         34.23997       66.62724       94.37114
O         34.11118       67.24023       93.32048
C         36.04968       64.94658       95.13089
C         37.22922       65.80627       94.59312
C         36.44829       63.45885       95.14990
C         37.65758       65.52219       93.14372
H         33.41315       63.62460       93.81392
H         35.00035       64.98452       93.25554
H         35.87267       65.23680       96.18902
H         38.10440       65.62470       95.24609
H         36.97492       66.88255       94.65976
H         37.38585       63.31977       95.73030
H         35.66340       62.85391       95.64378
H         36.59350       63.05919       94.12595
H         36.85304       65.76037       92.42033
H         38.52506       66.16429       92.88478
H         37.96827       64.46646       93.01007
N         33.90820       67.22580       95.54793
C         33.25103       68.52312       95.63989
C         34.21738       69.70372       95.61246
O         33.94027       70.63195       94.86663
C         32.35423       68.59663       96.90265
C         31.24857       67.56850       96.92938
O         31.10369       66.76307       96.02275
O         30.39435       67.54856       97.96972
H         34.03213       66.70467       96.41975
H         32.53255       68.63671       94.79501
H         31.87297       69.59800       96.94213
H         32.95165       68.47402       97.82199
N         35.31638       69.82638       96.41655
C         35.88009       68.74480       97.20512
C         37.00882       69.21906       98.10118
O         37.87430       69.92396       97.60164
H         35.81974       70.72760       96.39691
H         36.29280       67.99771       96.50192
H         35.10660       68.24710       97.77780
N         37.15478       68.84266       99.41208
C         36.33438       67.87650      100.14896
C         36.28426       66.55763       99.37330
O         35.20199       66.11589       99.01445
C         34.95399       68.46504      100.52982
C         35.11016       69.74326      101.30697
O         35.78415       69.75086      102.47290
O         34.62938       70.78209      100.88218
H         37.98525       69.20208       99.90939
H         36.82578       67.66831      101.12547
H         34.40599       67.73156      101.15928
H         34.32432       68.67420       99.65187
N         37.42063       65.89383       98.99812
C         38.76022       66.25426       99.42614
C         39.55298       66.89339       98.31796
O         39.12645       66.91008       97.17268
H         37.33699       65.09739       98.35563
H         39.28747       65.36628       99.83562
H         38.72331       66.98320      100.25321
N         40.69629       67.55241       98.64238
C         41.45137       68.36116       97.68978
C         42.21348       67.54431       96.65431
O         42.72932       68.14234       95.72009
C         42.38274       69.33584       98.44258
C         43.48242       68.64406       99.27159
C         44.23067       69.65197      100.10302
N         44.95130       70.63691       99.52097
O         44.18156       69.57996      101.32221
H         40.94559       67.57646       99.64099
H         40.71440       68.99656       97.14756
H         41.74393       69.93823       99.12773
H         42.84784       70.03562       97.71543
H         44.18803       68.09993       98.60918
H         43.03341       67.90493       99.96354
H         45.01037       70.71286       98.49575
H         45.45635       71.32354      100.10038
N         42.33597       66.18929       96.74953
C         43.02092       65.36286       95.75540
C         44.23734       64.65158       96.33056
O         44.85905       63.90113       95.59130
C         42.03089       64.34125       95.12587
C         40.97798       65.06650       94.28414
C         41.34794       63.43919       96.16832
H         41.93070       65.71273       97.56666
H         43.41798       65.98636       94.92357
H         42.59729       63.68592       94.42729
H         40.38262       65.75975       94.91055
H         41.47081       65.65290       93.47934
H         40.30203       64.32805       93.80472
H         40.70761       62.68949       95.65746
H         42.10226       62.89657       96.77583
H         40.69508       64.02779       96.84455
N         44.66838       64.85760       97.60885
C         45.84763       64.19856       98.16063
C         45.51870       63.38602       99.40727
O         46.43614       62.76365       99.92791
C         46.89935       65.27605       98.51184
C         47.34013       66.06828       97.30513
N         48.00119       65.46991       96.28669
O         47.11219       67.26803       97.25544
H         44.17889       65.53468       98.21027
H         46.29097       63.49245       97.42588
H         47.80204       64.81227       98.96542
H         46.45742       65.96894       99.26134
H         48.22024       64.46385       96.31807
H         48.30908       66.01759       95.46918
N         44.27825       63.38705       99.98927
C         44.03501       62.80384      101.30413
C         42.71714       62.04901      101.38051
O         41.67889       62.65160      101.14184
C         43.95482       63.95368      102.33400
C         45.20246       64.80279      102.35922
C         46.43319       64.26636      102.77355
C         45.13933       66.14957      101.96605
C         47.58050       65.06690      102.79137
C         46.28686       66.94458      101.98034
C         47.51177       66.40653      102.39386
O         48.62471       67.16695      102.41331
H         43.51859       63.95001       99.58257
H         44.87045       62.13608      101.60979
H         43.77884       63.54861      103.35394
H         43.08208       64.59379      102.07402
H         46.50431       63.23211      103.08571
H         44.20274       66.58292      101.64134
H         48.52397       64.64598      103.11470
H         46.22557       67.97790      101.66881
H         48.61467       68.09744      102.14588
N         42.67879       60.76789      101.85525
C         41.46449       60.12344      102.36641
C         40.35297       59.87382      101.35522
O         39.31325       59.38821      101.78176
C         40.91764       60.93720      103.56637
C         41.94428       61.03644      104.70546
C         41.41940       61.89106      105.82075
O         41.24101       61.36832      107.04840
O         41.16416       63.06865      105.62259
H         43.56986       60.27539      102.02329
H         41.74195       59.12026      102.76257
H         40.00848       60.44458      103.97605
H         40.62343       61.95330      103.23108
H         42.89416       61.48387      104.34617
H         42.16214       60.01396      105.08537
N         40.48939       60.09503      100.01778
C         39.42672       59.77256       99.06673
C         39.73681       58.48552       98.31750
O         38.91737       58.08034       97.50309
C         39.22311       60.93608       98.07764
C         38.79044       62.26885       98.70886
C         37.38847       62.23619       99.24755
O         36.44304       62.94861       98.60653
O         37.10027       61.57379      100.23081
H         41.39359       60.41814       99.64382
H         38.46646       59.57412       99.58803
H         38.45785       60.65898       97.31750
H         40.18358       61.09837       97.54460
H         38.80087       63.01829       97.88939
H         39.50404       62.61197       99.48606
N         40.86590       57.75810       98.55781
C         41.12485       56.50619       97.88283
H         42.08907       56.08093       98.23355
H         40.31492       55.78064       98.11214
H         41.18063       56.66915       96.78627
H         41.56273       58.07466       99.24636
Ca        34.26627       63.09896       99.11869
O         32.44859       65.58025      100.28425
H         32.19443       66.24591       99.59750
H         32.19737       66.00071      101.14448
O         33.93999       60.66292      101.00642
H         34.65291       60.56294      100.32694
H         34.39773       61.05600      101.79162
O         31.91188       62.96103      101.94953
H         32.03703       62.57288      102.85109
H         31.07026       62.55651      101.61994
O         35.37423       64.24540      101.87423
H         35.96770       63.50849      102.16618
H         35.80002       65.06451      102.23224

Ca 1.0



