%chk=apoCaM-CA-Ng.loop1.water4.frame8.chk
%nprocshared=20
%mem=10GB
%nosave
#b3lyp/svp scf=(tight,noincore,xqc) Test 
#IOP(5/87=12) Density=Current Pop=(MK,readradii) iop(6/33=2) iop(6/42=6)

apoCaM-CA-Ng.loop1.water4.frame8 

   0  1 
C         49.21989       41.72012       70.98902
C         48.29923       42.56662       70.15975
O         48.71172       43.60988       69.67431
H         50.22602       42.18323       71.06622
H         48.79916       41.59513       72.00871
H         49.32445       40.71937       70.51725
N         47.02294       42.15066       69.94544
C         46.05401       42.86573       69.12224
C         44.79725       43.22355       69.90846
O         43.82497       43.61940       69.28214
C         45.69918       42.01409       67.87642
C         45.02598       40.69931       68.17822
O         43.89100       40.49069       67.77983
O         45.68291       39.72713       68.83839
H         46.73031       41.26320       70.38064
H         46.48227       43.81280       68.72684
H         46.62119       41.81171       67.29065
H         45.02514       42.61704       67.22742
N         44.73128       43.10068       71.26931
C         43.49564       43.25402       72.03265
C         43.58410       44.39918       73.02685
O         44.52536       44.40380       73.80771
C         43.20927       41.94570       72.78482
C         42.96088       40.80335       71.79375
C         42.65840       39.49027       72.51765
C         42.26142       38.36562       71.54687
N         43.32177       38.04466       70.59049
H         45.57467       42.83265       71.79739
H         42.64806       43.40432       71.35846
H         42.29699       42.07694       73.40851
H         44.06124       41.69764       73.45700
H         43.85894       40.67397       71.15453
H         42.09398       41.07462       71.15164
H         41.80456       39.65031       73.21167
H         43.54373       39.18311       73.11651
H         41.34136       38.65944       70.99368
H         42.02745       37.45936       72.14622
H         44.20835       37.80961       71.09255
H         43.02457       37.22295       70.01719
H         43.47703       38.84398       69.93873
N         42.63990       45.38932       73.13926
C         41.42094       45.55750       72.33940
C         40.50224       44.33422       72.43152
O         40.24868       43.70450       71.41411
C         41.76792       45.99864       70.89966
C         42.49864       47.31450       70.86336
O         42.87423       47.82973       69.68313
O         42.71851       47.95158       71.88235
H         42.79059       46.08840       73.88309
H         40.83112       46.40947       72.74488
H         40.82559       46.12595       70.32495
H         42.38329       45.25717       70.37571
N         39.92249       43.93261       73.60455
C         40.03860       44.65197       74.86372
C         38.68455       45.14882       75.33387
O         37.67453       44.67662       74.82951
H         39.32442       43.09108       73.59095
H         40.70341       45.50249       74.74774
H         40.48824       44.00397       75.64497
N         38.54395       46.10209       76.30228
C         39.64673       46.86560       76.88827
C         40.27138       47.73344       75.80782
O         41.46926       47.64347       75.57505
C         39.14142       47.76450       78.03611
C         38.49263       46.95464       79.12490
O         37.32688       47.15595       79.42651
O         39.19164       46.00169       79.77057
H         37.58211       46.33550       76.59686
H         40.40074       46.16819       77.31808
H         38.41166       48.50951       77.64997
H         40.00111       48.31701       78.47381
N         39.47666       48.54815       75.05948
C         39.91813       49.27951       73.88360
C         39.13854       48.80586       72.67267
O         38.34630       47.87857       72.79642
H         38.47286       48.60683       75.29177
H         41.00478       49.14654       73.69163
H         39.72177       50.36056       74.04470
N         39.29309       49.41499       71.46389
C         38.52979       49.03268       70.27498
C         39.46442       48.61037       69.15885
O         40.61727       49.01177       69.17635
C         37.61787       50.21396       69.86622
C         36.64122       49.87586       68.73958
O         38.39433       51.32150       69.47922
H         39.95688       50.20170       71.39301
H         37.88047       48.16135       70.51174
H         36.98448       50.46919       70.75044
H         38.43313       51.94397       70.25131
H         36.01298       49.00546       69.02635
H         35.97406       50.74452       68.55667
H         37.17678       49.65466       67.79428
N         39.03278       47.80368       68.14664
C         39.89210       47.35879       67.05336
C         39.42412       48.01257       65.77171
O         38.33821       47.71656       65.29135
C         40.01769       45.79760       67.02435
C         40.94653       45.25750       65.89789
C         38.67677       45.03930       67.05518
C         40.33636       45.17750       64.48991
H         38.04571       47.50664       68.14422
H         40.92865       47.72014       67.23029
H         40.53108       45.54262       67.97803
H         41.23305       44.21579       66.16259
H         41.87999       45.85990       65.86853
H         38.05459       45.26808       66.16710
H         38.86469       43.94439       67.08978
H         38.09820       45.28952       67.96704
H         41.08850       44.75917       63.78873
H         39.46370       44.48992       64.48098
H         40.02898       46.16169       64.09639
N         40.20886       48.96990       65.19527
C         39.88087       49.69285       63.97419
C         40.99953       49.55546       62.93355
O         40.84411       50.08797       61.84640
C         39.64334       51.17760       64.36245
C         39.05787       52.03945       63.23685
O         40.84650       51.74477       64.81660
H         41.07909       49.24156       65.67832
H         38.94050       49.28869       63.53833
H         38.89220       51.17111       65.18816
H         40.60567       52.52577       65.37943
H         38.85169       53.05909       63.62660
H         39.75703       52.14968       62.38592
H         38.10141       51.60368       62.87922
N         42.15845       48.86914       63.19679
C         43.31504       48.79366       62.30682
C         43.96592       50.16293       62.17374
O         43.31402       51.11422       61.76642
C         42.99427       48.15134       60.93685
C         42.25848       46.81264       61.09322
O         44.18324       47.96371       60.20696
H         42.26918       48.37446       64.09095
H         44.05195       48.11645       62.79679
H         42.34151       48.82214       60.34214
H         44.74538       47.31005       60.70339
H         42.85403       46.10445       61.70821
H         41.27380       46.96791       61.58268
H         42.08056       46.36258       60.09447
N         45.27065       50.32587       62.52481
C         45.94861       51.61241       62.57611
C         46.49191       51.77686       63.97809
O         46.03508       52.66180       64.68872
C         47.01317       51.67563       61.46149
C         47.93301       52.90794       61.53381
C         48.71804       53.14802       60.22785
C         49.51007       51.93170       59.71796
N         50.22630       52.26107       58.48432
H         45.81405       49.49284       62.79893
H         45.23463       52.44690       62.38674
H         46.45644       51.68525       60.49848
H         47.64995       50.76547       61.48422
H         48.63369       52.77970       62.38860
H         47.33018       53.82402       61.71540
H         49.41329       54.00051       60.39316
H         47.99566       53.44335       59.43612
H         48.80789       51.09764       59.49966
H         50.23443       51.59303       60.49002
H         49.55620       52.60026       57.75539
H         50.94417       52.99807       58.67080
H         50.70434       51.40390       58.12359
N         47.46111       50.94166       64.44695
C         47.96613       50.98740       65.80961
C         49.35150       51.58516       65.79512
O         50.23570       51.03323       65.15426
C         48.00172       49.56505       66.41424
C         46.62767       48.88308       66.48719
C         45.70428       49.61679       67.40787
O         46.05245       49.79449       68.69676
O         44.64090       50.05304       66.99687
H         47.87541       50.24975       63.80446
H         47.31716       51.62749       66.44778
H         48.43613       49.60938       67.43794
H         48.66569       48.92442       65.79373
H         46.76080       47.85365       66.88468
H         46.18365       48.80291       65.47080
N         49.60215       52.73853       66.47682
C         50.89343       53.39227       66.49401
H         51.65117       52.84865       65.89229
H         50.78735       54.41719       66.08086
H         51.25547       53.46088       67.54068
H         48.84165       53.18891       67.00860
Ca        43.48953       49.99106       69.73861
O         44.94343       51.07102       72.10022
H         45.85557       50.68683       72.07714
H         45.06931       52.02566       71.87009
O         44.45558       52.74519       69.07127
H         44.47095       53.06789       68.13558
H         45.33654       53.00450       69.44042
O         41.90609       51.61310       67.76947
H         41.36584       52.43606       67.87107
H         41.27707       50.94719       67.39607
O         41.89287       52.18842       71.03809
H         40.96526       52.51600       70.92807
H         41.89461       51.73034       71.91609

Ca 1.0



