%chk=apoCaM-CA-Ng.loop1.water4.frame1012.chk
%nprocshared=20
%mem=10GB
%nosave
#b3lyp/svp scf=(tight,noincore,xqc) Test 
#IOP(5/87=12) Density=Current Pop=(MK,readradii) iop(6/33=2) iop(6/42=6)

apoCaM-CA-Ng.loop1.water4.frame1012 

   0  1 
C         35.51532       22.97714       46.15268
C         34.40098       23.71596       46.83721
O         34.33880       24.92980       46.71528
H         36.49322       23.34573       46.52688
H         35.45447       21.88408       46.33845
H         35.45855       23.15058       45.05715
N         33.46517       23.04630       47.56682
C         32.35053       23.72079       48.22570
C         32.88222       24.65990       49.30565
O         33.49776       24.18919       50.25195
C         31.38161       22.66271       48.79639
C         30.12693       23.25522       49.36271
O         29.79643       23.02891       50.64844
O         29.38690       23.92046       48.65524
H         33.53532       22.01808       47.62567
H         31.79901       24.29648       47.44846
H         31.89978       22.05913       49.57353
H         31.07995       21.97692       47.97427
N         32.74396       26.01323       49.17867
C         33.38844       26.96317       50.08715
C         32.85727       26.98256       51.52574
O         33.69647       27.22870       52.38347
C         33.45862       28.41992       49.54240
C         34.10059       28.58149       48.14996
C         35.58407       28.17375       48.11540
C         36.27040       28.51852       46.78089
N         35.74290       27.74543       45.65576
H         32.26892       26.36962       48.33771
H         34.45399       26.65155       50.15540
H         34.04323       29.03839       50.25965
H         32.46079       28.88637       49.49997
H         34.03749       29.66117       47.88913
H         33.51643       28.01860       47.39534
H         35.70208       27.08861       48.31774
H         36.11442       28.73968       48.91224
H         37.35592       28.29694       46.88258
H         36.16408       29.60652       46.57384
H         35.88649       26.72537       45.82811
H         34.73056       27.94813       45.49978
H         36.26621       28.00900       44.78997
N         31.56254       26.80446       51.95382
C         30.37776       26.44417       51.16508
C         29.14635       26.18721       52.05478
O         29.19275       26.40941       53.25527
C         30.01202       27.49235       50.10684
C         29.60078       28.81514       50.67625
O         28.48874       29.22641       50.41095
O         30.42201       29.59429       51.41293
H         31.43925       26.88779       52.97340
H         30.60865       25.49499       50.65739
H         29.17379       27.09695       49.49290
H         30.81355       27.64528       49.38861
N         27.99934       25.67862       51.51002
C         26.83271       25.33737       52.31193
C         26.05148       26.52064       52.85613
O         25.13869       26.27332       53.63117
H         27.97773       25.44182       50.50877
H         27.16360       24.68688       53.15059
H         26.12255       24.74596       51.69406
N         26.29341       27.81206       52.47357
C         25.53717       28.96804       52.96100
C         24.04941       28.78525       52.66221
O         23.27824       28.62519       53.59883
C         25.79934       29.19064       54.47721
C         27.23986       29.47545       54.82106
O         27.57578       29.69861       56.10593
O         28.10546       29.51741       53.96073
H         27.02847       27.98950       51.78476
H         25.88322       29.89158       52.44799
H         25.47214       28.30625       55.06306
H         25.20171       30.06466       54.81747
N         23.53632       28.74983       51.39701
C         24.25545       29.04494       50.16817
C         24.49571       30.53411       50.04020
O         23.54169       31.28927       50.16155
H         22.53362       28.52548       51.29635
H         23.59711       28.77368       49.31492
H         25.17677       28.43069       50.08014
N         25.73419       31.02615       49.75530
C         26.04391       32.46258       49.67327
C         27.50450       32.71338       49.17176
O         28.32588       31.70257       49.64933
C         25.82229       33.14387       51.04945
C         25.97250       34.66677       50.95958
O         26.71867       32.62369       51.99642
H         26.47057       30.33237       49.58063
H         25.34284       32.94127       48.95313
H         24.77649       32.95284       51.37791
H         26.27598       32.68691       52.88303
H         25.77052       35.12422       51.95120
H         26.99266       34.95429       50.63568
H         25.23909       35.07757       50.23218
N         27.56251       32.70998       47.69438
C         28.91431       32.76785       47.06721
C         29.72303       33.97404       47.52176
O         29.89269       34.18016       48.71448
C         29.73365       31.43800       47.18397
C         28.91161       30.19915       46.73839
C         31.05942       31.52269       46.39945
C         28.43692       30.22215       45.28024
H         27.01652       33.53800       47.35910
H         28.74530       32.89129       45.97615
H         30.04122       31.26186       48.23074
H         28.01921       30.09799       47.39188
H         29.53253       29.28866       46.88706
H         31.70431       32.32851       46.80660
H         31.62533       30.57153       46.49607
H         30.88563       31.73380       45.32441
H         29.29414       30.27311       44.57857
H         27.87595       29.28935       45.06377
H         27.75421       31.07546       45.09176
N         30.32080       34.77243       46.59112
C         31.11794       35.94516       46.92189
C         30.57193       37.13248       46.14822
O         31.30079       37.79892       45.42693
C         32.62536       35.65243       46.68242
C         32.97172       35.21724       45.25216
O         33.04741       34.63835       47.55819
H         30.22631       34.52701       45.59366
H         31.01096       36.19652       48.00037
H         33.20780       36.57291       46.88774
H         33.17414       35.05758       48.44968
H         34.06743       35.04945       45.17584
H         32.46372       34.26565       44.99208
H         32.69593       35.98940       44.50760
N         29.24454       37.42008       46.23554
C         28.60139       38.48031       45.46918
C         29.10438       39.83734       45.94388
O         28.96124       40.14496       47.11825
C         27.06224       38.33662       45.58759
C         26.30988       39.34171       44.71512
O         26.70303       37.04128       45.17487
H         28.65980       36.81501       46.83355
H         28.84865       38.33113       44.39317
H         26.77487       38.48543       46.65544
H         25.84392       36.82053       45.62081
H         25.21621       39.17053       44.80061
H         26.51190       40.36795       45.05644
H         26.60484       39.23309       43.64874
N         29.72829       40.68544       45.07294
C         30.30271       41.98651       45.42012
C         31.42616       41.82184       46.44330
O         31.42054       42.51080       47.45613
C         29.22590       42.98154       45.94257
C         28.00077       43.19280       45.04407
C         28.26690       43.96583       43.75034
C         26.94158       44.15399       42.98939
N         27.12349       44.95858       41.78376
H         29.82726       40.38644       44.09054
H         30.75650       42.40888       44.49650
H         29.68946       43.97060       46.15333
H         28.83919       42.59211       46.90754
H         27.26274       43.77851       45.63618
H         27.54871       42.21786       44.80482
H         28.99197       43.41832       43.11150
H         28.68771       44.96268       44.00624
H         26.20096       44.66207       43.64814
H         26.52933       43.15784       42.71102
H         27.80400       44.49600       41.13934
H         26.20203       45.05224       41.29737
H         27.46525       45.91303       42.04099
N         32.40925       40.88973       46.26723
C         33.45848       40.68225       47.26480
C         34.11049       39.30733       47.13875
O         34.02939       38.57363       48.11424
C         34.49062       41.83938       47.27209
C         35.50366       41.69253       48.42028
C         36.47526       42.83678       48.44013
O         37.21410       43.03459       47.48852
O         36.54733       43.64166       49.51743
H         32.34594       40.26160       45.45293
H         32.96523       40.68415       48.26531
H         33.95791       42.80469       47.40585
H         35.03903       41.89556       46.31239
H         36.07820       40.74776       48.31168
H         34.95577       41.66315       49.38736
N         34.78302       38.84182       46.04381
C         34.97503       39.53230       44.78667
H         36.06278       39.65738       44.60380
H         34.54597       38.91558       43.96943
H         34.49314       40.52150       44.74419
H         35.19507       37.89714       46.10291
Ca        29.48353       31.64735       51.59795
O         31.29662       31.55830       54.15027
H         31.96489       30.90543       53.82199
H         31.54296       31.71299       55.09670
O         32.06919       32.80163       50.41172
H         32.55923       32.34820       51.14271
H         31.67335       32.06268       49.88524
O         28.53739       33.41553       54.63086
H         28.04181       32.72979       55.14517
H         27.85306       34.09108       54.39408
O         29.36919       35.02877       52.03766
H         29.28804       34.33873       51.33341
H         29.55644       35.86479       51.54192

Ca 1.0



