%chk=apoCaM-CA-Ng.loop1.water3.frame1375.chk
%nprocshared=20
%mem=10GB
%nosave
#b3lyp/svp scf=(tight,noincore,xqc) Test 
#IOP(5/87=12) Density=Current Pop=(MK,readradii) iop(6/33=2) iop(6/42=6)

apoCaM-CA-Ng.loop1.water3.frame1375 

   0  1 
C          6.04696       62.74186       62.19142
C          6.67138       61.43813       61.79224
O          7.88064       61.30815       61.92290
H          4.94612       62.72414       62.05340
H          6.27282       62.95111       63.25729
H          6.46706       63.55863       61.56510
N          5.91519       60.44033       61.24658
C          6.48347       59.18557       60.76683
C          6.50914       59.22734       59.25479
O          5.95361       58.37393       58.57681
C          5.70820       57.98118       61.32873
C          5.75011       57.94405       62.82989
O          6.81655       57.84723       63.41588
O          4.60602       58.00648       63.53687
H          4.90852       60.60499       61.09292
H          7.54555       59.08960       61.08088
H          6.15337       57.03895       60.94027
H          4.65032       58.03530       60.99034
N          7.18749       60.24852       58.67274
C          7.37353       60.43099       57.24358
C          8.13662       59.26001       56.63374
O          7.64102       58.73436       55.64707
C          8.04277       61.80052       56.96199
C          7.10629       62.93910       57.43056
C          7.68843       64.33954       57.23031
C          6.68098       65.39055       57.73119
N          7.20353       66.74693       57.58553
H          7.62017       60.93965       59.30191
H          6.37672       60.47962       56.74785
H          8.21171       61.91385       55.86852
H          9.02576       61.87016       57.47466
H          6.88037       62.83131       58.51150
H          6.14796       62.86422       56.87030
H          7.90317       64.50873       56.15310
H          8.63449       64.43030       57.80753
H          6.45126       65.20577       58.80536
H          5.73297       65.29978       57.15452
H          6.48433       67.42519       57.92771
H          8.07197       66.85919       58.15711
H          7.40801       66.94778       56.58018
N          9.28923       58.71764       57.13650
C          9.99309       59.11955       58.35297
C          9.85121       58.04032       59.42311
O          9.23420       57.01145       59.18067
C         11.45391       59.47973       58.03043
C         12.18090       58.37519       57.32935
O         12.37633       57.18711       57.93320
O         12.58984       58.55717       56.19447
H          9.66621       57.89453       56.63938
H          9.56061       60.03000       58.78858
H         12.00849       59.75704       58.95191
H         11.44434       60.37329       57.36755
N         10.33708       58.26496       60.67405
C         10.09641       57.39094       61.81001
C         10.71671       55.98815       61.68966
O         12.06417       56.13053       61.37165
H         10.83521       59.14797       60.86121
H          9.00259       57.29230       61.97132
H         10.52880       57.87835       62.71280
N         10.55278       55.31906       62.99480
C         11.03679       53.93098       63.22207
C         10.95447       53.68988       64.73067
O          9.95284       54.08733       65.31197
C         10.14516       52.85405       62.54420
C         10.24406       52.82916       61.04723
O         11.42454       52.57683       60.45197
O          9.26216       53.06467       60.36279
H          9.53859       55.36439       63.25511
H         12.08272       53.81026       62.87536
H          9.08792       53.00298       62.85582
H         10.46538       51.84765       62.89388
N         11.88302       53.01989       65.47276
C         13.06252       52.32335       64.99556
C         14.14376       53.22498       64.46677
O         14.47649       54.21097       65.10934
H         11.68931       52.92316       66.48310
H         12.77934       51.53493       64.26545
H         13.51190       51.80243       65.87022
N         14.83071       52.85919       63.34855
C         15.98385       53.60159       62.84875
C         15.53353       54.91183       62.23463
O         14.42493       54.97021       61.73377
C         16.77913       52.75828       61.82101
C         17.33243       51.47280       62.45388
O         17.85701       53.51371       61.32946
H         14.56317       51.97879       62.88195
H         16.67240       53.80885       63.69897
H         16.09126       52.48436       60.98780
H         18.11403       53.11549       60.45667
H         16.52106       50.82380       62.84194
H         17.89503       50.89216       61.69278
H         18.02054       51.72131       63.28991
N         16.35307       56.00418       62.24487
C         16.02398       57.32557       61.70189
C         15.86942       57.27138       60.19054
O         14.93341       56.66111       59.69594
C         14.77085       57.94960       62.38329
C         14.95692       58.00589       63.91735
C         14.45649       59.34209       61.79414
C         13.67105       58.36734       64.66229
H         17.27882       55.90411       62.68866
H         16.88602       57.99061       61.93108
H         13.90788       57.30417       62.17706
H         15.76753       58.72065       64.17661
H         15.25054       57.00152       64.28947
H         14.27384       59.27762       60.70033
H         13.53224       59.76878       62.23001
H         15.30098       60.04081       61.97089
H         13.86177       58.34058       65.75515
H         13.31430       59.38295       64.40312
H         12.87616       57.62623       64.42608
N         16.76392       57.92693       59.39932
C         16.70046       57.93449       57.94333
C         17.90457       57.24632       57.32851
O         17.94541       57.18047       56.10698
C         16.54943       59.38291       57.41207
C         17.73292       60.29458       57.75541
O         15.37980       59.95755       57.93058
H         17.53795       58.43435       59.85044
H         15.81235       57.36393       57.59046
H         16.48758       59.35382       56.29674
H         14.63346       59.64392       57.35965
H         17.83399       60.42619       58.85181
H         18.68013       59.88388       57.34721
H         17.56756       61.29737       57.30775
N         18.91192       56.69953       58.07845
C         20.03775       55.99439       57.47318
C         19.50403       54.77968       56.72918
O         19.15644       53.79508       57.36309
C         21.10666       55.60589       58.53329
C         21.78784       56.84471       59.12692
O         20.52056       54.87331       59.58327
H         18.87877       56.77282       59.10476
H         20.52423       56.68016       56.74333
H         21.91554       55.01332       58.04259
H         20.71759       53.91334       59.43108
H         22.30130       57.42006       58.32741
H         21.05486       57.50927       59.63067
H         22.54820       56.53553       59.87593
N         19.30473       54.85210       55.37852
C         18.65361       53.84214       54.54644
C         17.24043       53.52431       55.01804
O         17.06940       53.02769       56.11978
C         19.48591       52.56071       54.41715
C         20.87250       52.85479       53.81926
C         21.59972       51.58466       53.36107
C         21.90147       50.59730       54.49533
N         22.57374       49.40982       53.96949
H         19.58588       55.71901       54.89517
H         18.57813       54.26405       53.51856
H         18.93605       51.88862       53.72077
H         19.58326       52.05000       55.39779
H         21.49011       53.42349       54.54871
H         20.74529       53.48401       52.91067
H         22.55791       51.88780       52.88549
H         20.97723       51.08026       52.58952
H         20.95909       50.27829       54.98941
H         22.55014       51.09002       55.25280
H         22.77796       48.75295       54.75627
H         21.95319       48.92633       53.27919
H         23.47182       49.67802       53.50550
N         16.16983       53.74148       54.20343
C         14.80340       53.43408       54.61033
C         14.22084       54.56565       55.44353
O         13.87382       54.29752       56.58447
C         13.92943       53.03836       53.40558
C         14.40978       51.71493       52.79113
C         13.55878       51.32501       51.61943
O         13.50656       52.04097       50.63207
O         12.85734       50.17589       51.64724
H         16.33385       54.09731       53.24988
H         14.80854       52.52776       55.26065
H         13.94561       53.82126       52.62746
H         12.88088       52.89765       53.75115
H         14.35316       50.91587       53.56355
H         15.46466       51.80254       52.45415
N         14.07212       55.85287       55.01893
C         14.41263       56.37134       53.71288
H         15.48951       56.22873       53.50128
H         13.78098       55.91399       52.93085
H         14.20335       57.46243       53.68402
H         13.69164       56.52383       55.69450
Ca        12.34624       54.49379       59.86454
O         13.64394       51.74785       58.30987
H         14.53805       51.55169       57.93219
H         13.01590       51.57295       57.56471
O         10.65913       53.89909       57.35798
H         10.14265       54.38031       58.05234
H         10.06660       53.15688       57.07851
O         15.57461       54.00525       58.97580
H         16.25007       54.48689       59.51154
H         15.97532       53.97886       58.07586

Ca 1.0



