%chk=apoCaM-CA-Ng.loop1.water3.frame1340.chk
%nprocshared=20
%mem=10GB
%nosave
#b3lyp/svp scf=(tight,noincore,xqc) Test 
#IOP(5/87=12) Density=Current Pop=(MK,readradii) iop(6/33=2) iop(6/42=6)

apoCaM-CA-Ng.loop1.water3.frame1340 

   0  1 
C         64.09047       24.47148      110.47437
C         63.31493       25.01708      111.63431
O         62.61684       26.00687      111.46480
H         65.17330       24.45312      110.71891
H         63.74286       23.44156      110.25372
H         63.94152       25.10185      109.57078
N         63.41603       24.43107      112.86345
C         62.68991       24.91262      114.03791
C         63.54086       25.86813      114.86349
O         63.62538       25.72738      116.07643
C         62.13738       23.72133      114.86197
C         63.19711       22.82418      115.47299
O         64.38985       23.04739      115.32795
O         62.81687       21.76310      116.20794
H         64.05421       23.62850      112.95993
H         61.82100       25.50950      113.69658
H         61.49131       23.10099      114.20506
H         61.50790       24.11608      115.68870
N         64.21090       26.88046      114.25002
C         65.03488       27.84096      114.97075
C         64.15965       28.77645      115.79321
O         64.37362       28.82881      116.99588
C         66.01180       28.58956      114.03231
C         66.91020       27.57952      113.29129
C         67.95481       28.25657      112.40522
C         68.74987       27.19177      111.63367
N         69.76582       27.80373      110.78133
H         64.16399       26.94541      113.22613
H         65.70322       27.27882      115.66381
H         66.65180       29.25454      114.65359
H         65.48871       29.22412      113.29151
H         66.28389       26.93089      112.64415
H         67.43330       26.93399      114.03147
H         68.64129       28.85987      113.03866
H         67.44775       28.92860      111.67919
H         68.05111       26.59998      110.99943
H         69.24229       26.49641      112.34996
H         69.31626       28.45251      110.09533
H         70.45565       28.32664      111.36783
H         70.26702       27.05035      110.25708
N         63.11676       29.50797      115.28938
C         62.65883       29.52318      113.89931
C         61.35586       28.75606      113.76213
O         60.79356       28.33064      114.76107
C         62.58665       30.96734      113.36926
C         61.75744       31.86196      114.24596
O         60.44824       31.61630      114.43631
O         62.28314       32.80759      114.81005
H         62.56051       30.04941      115.96995
H         63.35769       28.98747      113.24601
H         62.18541       30.98472      112.33345
H         63.62277       31.37150      113.33609
N         60.89148       28.41997      112.52543
C         59.79743       27.48011      112.34660
C         58.43496       28.06962      112.58221
O         58.29909       29.27233      112.73838
H         61.42537       28.71212      111.69252
H         59.95633       26.60616      113.01018
H         59.79995       27.10581      111.29992
N         57.35955       27.23409      112.59939
C         55.96613       27.67697      112.63039
C         55.17282       26.90793      111.57679
O         55.70017       25.93983      111.04503
C         55.40675       27.47457      114.05442
C         56.12715       28.41705      114.96877
O         56.06169       29.73464      114.70070
O         56.82437       28.00389      115.88100
H         57.54583       26.21863      112.58351
H         55.91643       28.75284      112.36308
H         55.54283       26.41746      114.37474
H         54.33142       27.71672      114.11660
N         53.91526       27.24175      111.16466
C         53.12450       28.39123      111.57060
C         53.74087       29.70327      111.14790
O         54.21233       29.81423      110.02481
H         53.47883       26.62831      110.45801
H         52.87734       28.37050      112.64900
H         52.15391       28.32758      111.03321
N         53.66916       30.78078      111.97611
C         54.15746       32.10638      111.60868
C         55.66916       32.12732      111.58781
O         56.28686       31.53151      112.45539
C         53.62083       33.18552      112.57996
C         52.09701       33.31835      112.45611
O         54.20323       34.42721      112.26774
H         53.19449       30.66297      112.88448
H         53.77181       32.38584      110.60207
H         53.88813       32.89184      113.62034
H         54.12587       34.99671      113.07762
H         51.58683       32.36272      112.69309
H         51.72678       34.09601      113.15606
H         51.82427       33.62051      111.42105
N         56.31828       32.86356      110.63935
C         57.76389       33.02754      110.52818
C         58.31652       33.69357      111.78237
O         58.40328       33.03843      112.81249
C         58.47909       31.67167      110.23094
C         57.82866       30.93995      109.02820
C         59.99047       31.88120      110.00015
C         58.26823       29.47777      108.90781
H         55.74741       33.36825      109.94446
H         57.94188       33.70327      109.66091
H         58.35036       31.03044      111.11825
H         58.03775       31.48960      108.08510
H         56.72810       30.90121      109.16396
H         60.16055       32.51846      109.10575
H         60.46294       32.37050      110.87657
H         60.51707       30.91699      109.85409
H         57.73544       29.00119      108.05842
H         59.35646       29.37920      108.73030
H         57.99740       28.92632      109.83397
N         58.74120       34.98995      111.76049
C         59.40753       35.61699      112.89917
C         58.68741       36.83392      113.46062
O         59.19601       37.37558      114.43026
C         60.85948       35.99220      112.50045
C         60.92283       37.11922      111.45968
O         61.52109       34.86936      111.98022
H         58.63193       35.52909      110.88920
H         59.47744       34.89392      113.73940
H         61.40874       36.35764      113.39960
H         61.64253       34.23586      112.73170
H         60.45222       38.04558      111.85235
H         61.98259       37.34835      111.22392
H         60.41590       36.83198      110.51663
N         57.54450       37.35267      112.91224
C         56.93763       38.58206      113.43072
C         56.48212       38.33963      114.86520
O         55.50507       37.63413      115.06415
C         55.79656       39.05593      112.49406
C         55.19933       40.39901      112.92199
O         56.31346       39.19175      111.19325
H         57.12933       36.89777      112.08772
H         57.72684       39.36737      113.41309
H         54.99683       38.27735      112.50072
H         55.55608       39.07428      110.56196
H         54.75654       40.33290      113.93655
H         55.98016       41.18928      112.91012
H         54.39734       40.68908      112.20847
N         57.25016       38.79351      115.90591
C         57.10744       38.41094      117.31332
C         57.23554       36.90360      117.47510
O         56.42064       36.17211      116.93519
C         55.83333       38.95124      117.98443
C         55.79262       40.48683      117.94405
C         54.75150       41.04761      118.92053
C         54.71377       42.58094      118.85589
N         53.83833       43.13005      119.89076
H         58.07233       39.37361      115.67974
H         57.95648       38.87279      117.86709
H         55.88208       38.62922      119.04947
H         54.90767       38.52836      117.53833
H         55.58870       40.82100      116.90342
H         56.78080       40.89017      118.25924
H         55.03904       40.73701      119.95022
H         53.74235       40.64042      118.69470
H         54.35152       42.89413      117.85149
H         55.73781       42.99171      119.00283
H         52.87255       42.74072      119.79846
H         54.22270       42.90120      120.83686
H         53.79995       44.17007      119.78938
N         58.24360       36.35709      118.21351
C         58.46603       34.91752      118.25466
C         59.18784       34.47124      116.98675
O         58.59651       33.69471      116.25538
C         59.15825       34.46263      119.55285
C         58.27339       34.71888      120.78106
C         58.94402       34.23138      122.03222
O         58.36712       33.26820      122.77588
O         60.01119       34.70820      122.38465
H         58.89238       36.97682      118.72065
H         57.47766       34.40212      118.27427
H         60.11966       34.98095      119.69969
H         59.34642       33.36725      119.48584
H         57.30677       34.18216      120.65599
H         58.06259       35.80458      120.88400
N         60.42497       34.89772      116.59396
C         61.28516       35.80613      117.31744
H         62.20497       35.99320      116.72352
H         60.78488       36.77933      117.47967
H         61.62009       35.35511      118.26817
H         60.78369       34.55330      115.69288
Ca        57.55778       31.21839      115.45722
O         55.93275       33.82887      115.05780
H         56.48837       34.64219      114.98333
H         56.10995       33.35584      114.20990
O         59.27259       29.43654      116.87916
H         60.20791       29.75620      116.92718
H         59.30939       28.49435      117.17917
O         57.02048       31.79098      118.20721
H         57.88956       31.31717      118.23128
H         56.34213       31.07205      118.25466

Ca 1.0



