%chk=apoCaM-CA-Ng.loop1.water5.frame525.chk
%nprocshared=20
%mem=10GB
%nosave
#b3lyp/svp scf=(tight,noincore,xqc) Test 
#IOP(5/87=12) Density=Current Pop=(MK,readradii) iop(6/33=2) iop(6/42=6)

apoCaM-CA-Ng.loop1.water5.frame525 

   0  1 
C         76.58378       16.96529       40.23014
C         75.28507       17.07749       39.48712
O         75.19957       17.85515       38.54800
H         77.34602       17.65175       39.80354
H         76.42569       17.22880       41.29740
H         76.96253       15.92383       40.16521
N         74.21891       16.31794       39.87331
C         72.88996       16.34355       39.25877
C         72.94433       15.81821       37.81768
O         74.03327       15.60795       37.30066
C         72.29957       17.77825       39.38842
C         70.80409       17.93659       39.27873
O         70.27652       19.17372       39.34302
O         70.05502       16.97728       39.22121
H         74.34803       15.68626       40.67933
H         72.26400       15.64299       39.85482
H         72.78787       18.44078       38.64371
H         72.54587       18.16724       40.40079
N         71.80499       15.53260       37.11906
C         71.78037       15.04089       35.74353
C         72.43405       13.66888       35.58466
O         72.63797       13.24695       34.45435
C         72.34852       16.09825       34.76402
C         71.69137       17.49126       34.89894
C         70.15923       17.47261       34.75120
C         69.57343       18.88906       34.82817
N         68.11161       18.85397       34.76809
H         70.89367       15.65264       37.56724
H         70.72271       14.88393       35.44222
H         72.19244       15.73592       33.72390
H         73.44211       16.21916       34.91362
H         72.12677       18.14876       34.11472
H         71.94832       17.92569       35.88951
H         69.71586       16.87687       35.57631
H         69.87838       17.01163       33.77933
H         69.96484       19.49782       33.98304
H         69.88316       19.37063       35.78252
H         67.79461       18.40334       33.87922
H         67.73287       18.32294       35.58630
H         67.74261       19.83163       34.80410
N         72.68613       12.86908       36.66466
C         73.23795       11.51738       36.55934
C         73.14204       10.84427       37.94080
O         73.63838       11.45077       38.87842
C         74.71787       11.56832       36.07363
C         75.25448       10.20501       35.71374
O         74.52198        9.23442       35.72799
O         76.53343       10.01607       35.34308
H         72.40847       13.20850       37.59668
H         72.63207       10.98135       35.80604
H         75.34657       12.02556       36.86877
H         74.81467       12.19284       35.16263
N         72.50252        9.66089       38.21634
C         71.94692        8.71991       37.25663
C         72.47288        7.31959       37.52687
O         71.67028        6.40260       37.62665
H         72.42576        9.38620       39.20874
H         72.18093        8.98734       36.21588
H         70.83902        8.70917       37.34347
N         73.80804        7.08531       37.69832
C         74.37666        5.75751       37.94090
C         75.82144        5.89352       38.39466
O         76.63237        6.43990       37.66497
C         74.23768        4.85121       36.68572
C         74.83595        5.46131       35.43728
O         76.16648        5.64353       35.31723
O         74.10167        5.83352       34.53633
H         74.44373        7.89535       37.70595
H         73.81680        5.27976       38.77540
H         73.15353        4.69256       36.50560
H         74.68508        3.85128       36.87319
N         76.20229        5.48521       39.63679
C         77.54984        5.68825       40.13688
C         77.51224        6.76492       41.17526
O         77.91513        6.53046       42.30461
H         75.50369        5.08275       40.28009
H         78.24195        6.03491       39.34033
H         77.95557        4.73254       40.53444
N         77.00673        7.99048       40.85208
C         76.93907        9.08063       41.81377
C         78.32733        9.55224       42.18383
O         79.26926        9.29135       41.44835
C         76.08777       10.26282       41.29019
C         76.67570       10.94523       40.04294
O         74.79571        9.79251       40.99995
H         76.62736        8.12778       39.90446
H         76.43628        8.68347       42.72433
H         76.04401       11.02466       42.10534
H         74.15125       10.47936       41.31232
H         77.69421       11.33553       40.24783
H         76.72424       10.25082       39.17964
H         76.04093       11.80703       39.75320
N         78.52502       10.26524       43.32561
C         79.84484       10.75631       43.71661
C         80.85566        9.62303       43.91055
O         82.04057        9.91420       43.99333
C         79.77718       11.64601       44.99858
C         79.33831       10.82213       46.24403
C         78.86911       12.87032       44.75923
C         79.34396       11.62028       47.54777
H         77.70332       10.46336       43.91335
H         80.21324       11.38729       42.87600
H         80.80245       12.03551       45.18805
H         80.04620        9.97746       46.38532
H         78.32379       10.39544       46.10001
H         78.91419       13.57304       45.61508
H         79.21023       13.42902       43.86242
H         77.80918       12.57819       44.61121
H         78.58814       12.43107       47.52605
H         79.08577       10.94498       48.39107
H         80.35023       12.05123       47.73322
N         80.45816        8.32243       44.04765
C         81.37214        7.21148       44.27922
C         81.14171        6.70048       45.67914
O         80.00879        6.38278       46.01393
C         81.13008        6.06221       43.27328
C         81.37234        6.49114       41.82693
O         81.99761        4.99837       43.57818
H         79.45260        8.10009       44.05523
H         82.43224        7.53359       44.17901
H         80.07190        5.72705       43.37923
H         81.53387        4.15858       43.32165
H         82.42060        6.83166       41.69322
H         81.18226        5.63303       41.14764
H         80.68666        7.30748       41.54140
N         82.18360        6.58978       46.54954
C         82.03440        6.09808       47.91175
C         83.36225        6.17882       48.64451
O         83.42180        6.86460       49.65618
C         81.45594        4.64459       47.95180
C         81.30409        4.11921       49.38281
O         82.25640        3.75014       47.22366
H         83.12199        6.87441       46.22770
H         81.31275        6.76074       48.44260
H         80.42531        4.62912       47.53611
H         81.97571        3.81599       46.27351
H         80.64248        4.78857       49.97198
H         80.85428        3.10359       49.36334
H         82.28795        4.04819       49.88958
N         84.44333        5.44870       48.23563
C         85.63885        5.30923       49.05093
C         86.91035        5.55278       48.26189
O         87.14899        4.86535       47.27773
C         85.64332        3.88353       49.62893
C         86.70717        3.70477       50.71698
C         86.62155        2.29868       51.32318
C         87.59608        2.08562       52.49212
N         87.27796        2.93591       53.64296
H         84.37248        4.86898       47.38721
H         85.59597        6.00522       49.91702
H         85.77170        3.13406       48.81604
H         84.65523        3.70565       50.10613
H         86.50667        4.46492       51.49915
H         87.72536        3.87093       50.30235
H         86.85508        1.55949       50.52577
H         85.58800        2.10295       51.68457
H         88.64125        2.27016       52.15970
H         87.51689        1.02195       52.80759
H         87.90354        2.67779       54.43931
H         87.43903        3.94356       53.42265
H         86.28446        2.79003       53.93693
N         87.82494        6.45645       48.71109
C         89.15376        6.58808       48.12937
C         89.10411        7.10416       46.69516
O         89.67385        6.44160       45.83969
C         90.12638        7.43256       48.99801
C         90.41200        6.84490       50.39854
C         89.28125        7.02649       51.36992
O         88.84900        8.26581       51.67436
O         88.75880        6.05887       51.89858
H         87.58664        7.01016       49.54272
H         89.62136        5.57580       48.11025
H         89.81920        8.48872       49.10004
H         91.10160        7.42666       48.46138
H         91.28453        7.37812       50.83171
H         90.68342        5.76976       50.30513
N         88.47158        8.25122       46.30913
C         87.67714        9.09445       47.17650
H         86.81553        8.52356       47.57867
H         88.28042        9.51316       48.00010
H         87.26948        9.94693       46.59307
H         88.52761        8.52475       45.31531
Ca        76.88886        7.78709       35.16511
O         75.62501        8.10046       32.44139
H         76.24210        8.87470       32.46414
H         74.85658        8.37976       32.99992
O         78.82764        8.94499       37.84821
H         79.08961        9.89473       37.94684
H         79.21665        8.49673       38.64068
O         79.74771        8.71328       34.76322
H         79.90478        9.67390       34.58232
H         80.64649        8.30023       34.72306
O         78.33374        5.98491       33.05571
H         78.71279        5.28153       33.64061
H         77.40404        5.69031       32.88398
O         79.44265        5.96074       36.54260
H         79.45052        4.99084       36.74128
H         80.03234        6.35956       37.23068

Ca 1.0



