%chk=apoCaM-CA-Ng.loop1.water3.frame1058.chk
%nprocshared=20
%mem=10GB
%nosave
#b3lyp/svp scf=(tight,noincore,xqc) Test 
#IOP(5/87=12) Density=Current Pop=(MK,readradii) iop(6/33=2) iop(6/42=6)

apoCaM-CA-Ng.loop1.water3.frame1058 

   0  1 
C          4.43920       73.34668       32.51982
C          3.50592       72.52190       33.34894
O          2.98778       73.03559       34.32910
H          5.43255       72.85699       32.46188
H          4.01451       73.45844       31.50108
H          4.56343       74.35862       32.96480
N          3.25905       71.21743       33.02651
C          2.31327       70.38781       33.76960
C          3.00442       69.50146       34.79252
O          2.71167       68.31614       34.87878
C          1.36829       69.62118       32.81211
C          2.04709       68.60193       31.92299
O          1.30374       67.88518       31.05980
O          3.25122       68.40345       31.97749
H          3.76661       70.81147       32.22783
H          1.66814       71.04920       34.37703
H          0.84254       70.35583       32.16583
H          0.60121       69.08875       33.41639
N          3.90067       70.04672       35.65965
C          4.45010       69.32334       36.79824
C          3.32286       69.02905       37.78653
O          3.14468       67.85836       38.09093
C          5.64857       70.07298       37.43952
C          6.95992       69.93166       36.62811
C          6.88942       70.43001       35.17235
C          8.18984       70.19018       34.38620
N          9.31389       70.97337       34.89806
H          4.17265       71.03105       35.52911
H          4.86718       68.34600       36.46256
H          5.86403       69.60717       38.42660
H          5.43032       71.14166       37.62580
H          7.24221       68.85594       36.61084
H          7.74988       70.48383       37.17879
H          6.61958       71.50763       35.14411
H          6.11484       69.85035       34.63227
H          8.00890       70.47887       33.32674
H          8.44559       69.10669       34.40198
H         10.14337       70.81015       34.28256
H          9.07726       71.99173       34.88142
H          9.56481       70.67648       35.86698
N          2.45386       69.96363       38.28680
C          2.46656       71.39791       38.00860
C          1.31774       71.78881       37.08338
O          0.52166       70.93655       36.71208
C          2.41751       72.18909       39.32766
C          1.12051       71.97277       40.05224
O         -0.03758       72.18454       39.39835
O          1.11347       71.63326       41.22070
H          1.68371       69.61163       38.87793
H          3.38465       71.69337       37.48982
H          2.49840       73.27321       39.10323
H          3.28035       71.91964       39.97703
N          1.19646       73.07543       36.64322
C          0.19009       73.48689       35.67649
C         -1.21618       73.56942       36.22404
O         -1.42970       73.46372       37.42042
H          1.90505       73.76981       36.92420
H          0.21920       72.78909       34.81545
H          0.43732       74.50073       35.29533
N         -2.24006       73.76067       35.34477
C         -3.64447       73.92616       35.71847
C         -4.24809       75.11194       34.95062
O         -3.61566       75.58703       34.01898
C         -4.38778       72.62174       35.35390
C         -3.93960       71.48877       36.23086
O         -4.13472       71.55572       37.56230
O         -3.41597       70.49989       35.74445
H         -2.00974       73.74627       34.33941
H         -3.73052       74.11756       36.80927
H         -4.20606       72.38187       34.28278
H         -5.47859       72.70252       35.48110
N         -5.47479       75.65396       35.23220
C         -6.29440       75.32760       36.38642
C         -5.67515       75.83990       37.66212
O         -4.66691       76.53083       37.61370
H         -5.83388       76.38948       34.60293
H         -6.48717       74.24547       36.44936
H         -7.28506       75.82316       36.29102
N         -6.24462       75.53470       38.85810
C         -5.72918       76.01109       40.14001
C         -4.26249       75.64796       40.31391
O         -3.87051       74.54972       39.95156
C         -6.58923       75.47602       41.31263
C         -6.18473       76.12101       42.64068
O         -6.47657       74.08133       41.43752
H         -7.08651       74.93795       38.84534
H         -5.82264       77.12015       40.14626
H         -7.65447       75.75647       41.14021
H         -7.00668       73.66945       40.70859
H         -5.14005       75.85617       42.90876
H         -6.27018       77.22685       42.57546
H         -6.85869       75.76633       43.44734
N         -3.39729       76.55536       40.85528
C         -1.95762       76.35915       40.98917
C         -1.69366       75.10974       41.89324
O         -0.92280       74.17990       41.20926
C         -1.27113       76.34793       39.57309
C         -1.70004       77.60002       38.75516
C          0.27722       76.32447       39.67394
C         -1.34004       77.51112       37.26916
H         -3.77712       77.45685       41.18232
H         -1.55623       77.26200       41.50393
H         -1.62487       75.44616       39.03316
H         -1.26015       78.51736       39.20435
H         -2.79949       77.71939       38.78219
H          0.64078       77.23239       40.20019
H          0.68377       75.45025       40.21003
H          0.74523       76.28430       38.67158
H         -1.70824       78.42025       36.74880
H         -0.24832       77.44617       37.10099
H         -1.83416       76.62554       36.81396
N         -0.97147       75.49555       43.11156
C         -0.54068       74.36103       43.96319
C         -1.62841       73.78081       44.86983
O         -1.32572       72.83247       45.58231
C          0.66778       74.82091       44.82270
C          0.29775       75.90687       45.84457
O          1.68553       75.31901       43.99226
H         -1.46316       76.24924       43.64148
H         -0.16348       73.53216       43.32497
H          1.06110       73.95546       45.40622
H          2.11388       74.53668       43.55673
H         -0.48386       75.54151       46.54396
H          1.19209       76.17852       46.44322
H         -0.07027       76.82568       45.34360
N         -2.87028       74.33530       44.97842
C         -3.79280       73.95698       46.04532
C         -4.37699       72.57194       45.82431
O         -5.11725       72.39542       44.86811
C         -4.91931       75.02002       46.16291
C         -5.82290       74.79027       47.37539
O         -4.38104       76.31938       46.22557
H         -3.11965       75.13750       44.38670
H         -3.22075       73.98429       47.00018
H         -5.54352       74.96703       45.24742
H         -3.70418       76.33669       46.95144
H         -6.31607       73.80034       47.31514
H         -5.22706       74.84869       48.31137
H         -6.61100       75.57164       47.40333
N         -4.10250       71.54324       46.68316
C         -4.66654       70.20134       46.54206
C         -4.27595       69.61859       45.19811
O         -5.12873       69.39989       44.34760
C         -6.19336       70.20055       46.78946
C         -6.51800       70.65556       48.22128
C         -8.01753       70.55670       48.51983
C         -8.31489       71.01364       49.95510
N         -9.73871       70.88817       50.26302
H         -3.45801       71.71009       47.47040
H         -4.23351       69.53434       47.32164
H         -6.56400       69.15858       46.66446
H         -6.72269       70.84549       46.05644
H         -6.17963       71.70276       48.36524
H         -5.97123       70.00767       48.94179
H         -8.34399       69.50030       48.39774
H         -8.58451       71.19222       47.80508
H         -8.00374       72.07526       50.07730
H         -7.73252       70.39310       50.67261
H         -9.90628       71.21500       51.24210
H        -10.30302       71.47598       49.60760
H        -10.03505       69.88792       50.18625
N         -2.96601       69.33441       44.95952
C         -2.45939       68.84540       43.68475
C         -1.37322       69.78558       43.17120
O         -1.63848       70.42164       42.16495
C         -2.02415       67.37273       43.77745
C         -3.22812       66.45041       44.01897
C         -2.79417       65.01585       44.09438
O         -3.21987       64.20122       43.29117
O         -1.93992       64.61847       45.05683
H         -2.30615       69.47501       45.73314
H         -3.27363       68.86892       42.92511
H         -1.30489       67.22692       44.60220
H         -1.55082       67.07741       42.81437
H         -3.95613       66.57430       43.18576
H         -3.73404       66.71715       44.97085
N         -0.14824       69.99152       43.74593
C          0.41874       69.28090       44.86972
H          1.42400       69.69663       45.09471
H         -0.19022       69.39083       45.78179
H          0.57865       68.21836       44.60702
H          0.45975       70.70710       43.32675
Ca        -2.03546       72.44017       40.34314
O         -4.31023       69.95634       40.30790
H         -4.72297       69.35310       40.97513
H         -4.51608       69.53571       39.43600
O         -1.72316       69.80392       38.59487
H         -0.87041       69.37454       38.33602
H         -2.40192       69.36444       38.02463
O         -3.74041       72.45619       42.56224
H         -4.29531       72.95101       41.91304
H         -4.11362       71.54016       42.55036

Ca 1.0



