%chk=apoCaM-CA-Ng.loop4.water5.frame823.chk
%nprocshared=20
%mem=10GB
%nosave
#b3lyp/svp scf=(tight,noincore,xqc) Test 
#IOP(5/87=12) Density=Current Pop=(MK,readradii) iop(6/33=2) iop(6/42=6)

apoCaM-CA-Ng.loop4.water5.frame823 

   -3  1 
C         72.91239       94.08856       66.93262
C         74.40572       94.27432       66.90366
O         74.89038       95.27510       67.40966
H         72.41500       94.92626       66.40127
H         72.61067       93.13759       66.44203
H         72.55828       94.05983       67.98477
N         75.19923       93.32475       66.33390
C         76.65921       93.36381       66.26512
C         77.26144       93.41021       67.65892
O         78.10260       94.25574       67.93771
C         77.17610       94.51766       65.37310
C         76.45026       94.57953       64.06360
O         75.79646       95.71338       63.76958
O         76.39714       93.61718       63.31554
H         74.74455       92.48990       65.93220
H         76.98266       92.41028       65.79139
H         78.26657       94.39751       65.20105
H         77.01551       95.49046       65.89021
N         76.82778       92.54007       68.61159
C         77.33147       92.57519       69.98403
C         78.76005       92.02088       70.04286
O         79.17613       91.40487       69.07085
C         76.37478       91.79907       70.94974
C         76.30093       90.28038       70.61772
C         74.98197       92.46227       70.95793
C         75.49760       89.46814       71.63433
H         76.06937       91.89325       68.35509
H         77.33523       93.64203       70.29778
H         76.77024       91.89981       71.97612
H         77.32864       89.85970       70.61673
H         75.86033       90.10897       69.61425
H         74.32282       92.00437       71.72197
H         75.07527       93.53822       71.21844
H         74.48326       92.38074       69.96978
H         75.93154       89.58611       72.64961
H         74.43180       89.77201       71.64698
H         75.53516       88.39349       71.35581
N         79.58816       92.14280       71.12682
C         79.33472       92.94622       72.31737
C         80.49442       93.93059       72.47387
O         81.15078       93.94895       73.50742
C         79.19679       91.99960       73.53669
C         78.79959       92.68609       74.81993
O         78.65678       91.95250       75.93960
O         78.59243       93.88919       74.86223
H         80.49987       91.65874       71.08364
H         78.39699       93.52357       72.21011
H         80.15711       91.46079       73.69161
H         78.42203       91.23491       73.32361
N         80.85997       94.72463       71.42868
C         82.05894       95.54540       71.45809
C         81.87837       96.82186       72.23831
O         82.58114       97.04346       73.21407
H         80.34534       94.64767       70.53806
H         82.31698       95.84827       70.42010
H         82.91293       94.94386       71.84078
N         81.00455       97.75797       71.78002
C         80.89316       99.10388       72.33099
C         80.46056       99.13243       73.78327
O         81.04135       99.90058       74.53941
C         80.01906      100.01651       71.43419
C         78.56574       99.63960       71.30961
O         78.23654       98.54264       70.88982
O         77.61398      100.55218       71.58452
H         80.46618       97.52495       70.93306
H         81.90348       99.57223       72.28070
H         80.45983      100.01135       70.41401
H         80.08350      101.05981       71.81622
N         79.46815       98.32859       74.26297
C         79.02072       98.42447       75.64436
C         78.27181       99.71696       75.89556
O         78.10792      100.08419       77.05001
H         79.02785       97.63118       73.64531
H         79.90696       98.35080       76.31406
H         78.33756       97.58668       75.89871
N         77.73083      100.42631       74.85785
C         77.00169      101.67983       74.99750
C         75.72187      101.52151       75.80599
O         75.12799      102.53127       76.15731
C         77.95795      102.79905       75.47226
C         79.01484      103.05593       74.37577
C         80.04332      104.07806       74.77393
N         81.36055      103.76177       74.76456
O         79.69193      105.20684       75.08234
H         77.82497      100.05899       73.90799
H         76.64193      102.00522       73.99504
H         78.44011      102.52201       76.43278
H         77.39296      103.74453       75.62728
H         78.50113      103.41618       73.45683
H         79.53036      102.10727       74.12234
H         81.67766      102.82039       74.48808
H         82.07101      104.46288       75.01964
N         75.15910      100.28801       76.00136
C         73.84863      100.08786       76.61600
C         72.83173       99.53879       75.62046
O         71.65928       99.50941       75.97122
C         73.93856       99.15293       77.85358
C         74.44152       97.74043       77.49359
C         74.82428       99.76532       78.94326
H         75.64574       99.45580       75.64634
H         73.44095      101.06759       76.94953
H         72.91558       99.04759       78.27964
H         75.48174       97.76261       77.10751
H         74.42656       97.08992       78.39289
H         73.78778       97.27117       76.72799
H         74.83045       99.11012       79.84030
H         75.86750       99.88668       78.58521
H         74.42782      100.75876       79.24194
N         73.18635       99.06463       74.38718
C         72.22099       98.54746       73.42383
C         72.34582       99.31421       72.11711
O         73.28427      100.08596       71.95763
C         72.47664       97.03402       73.24154
C         71.45556       96.33933       72.37510
N         71.82821       95.68970       71.24721
O         70.27862       96.35070       72.70504
H         74.17667       99.03908       74.10771
H         71.18773       98.69040       73.80864
H         72.43939       96.54869       74.24134
H         73.50004       96.88525       72.83223
H         72.81543       95.65874       70.95396
H         71.12565       95.21026       70.66462
N         71.39884       99.18820       71.14664
C         71.47554       99.90848       69.87871
C         70.13568       99.82283       69.17557
O         69.57614       98.74029       69.11768
C         72.63247       99.36150       69.00054
C         73.15993      100.43150       68.06293
C         72.38221      100.96277       67.01926
C         74.45812      100.93940       68.26750
C         72.88463      101.99494       66.21712
C         74.95721      101.96660       67.46555
C         74.17232      102.50440       66.44377
O         74.66408      103.51088       65.69326
H         70.57326       98.60620       71.35034
H         71.68667      100.97587       70.11822
H         72.34618       98.42696       68.46991
H         73.47159       99.08170       69.66990
H         71.38681      100.59229       66.82759
H         75.08438      100.55499       69.06356
H         72.26964      102.40419       65.42568
H         75.95254      102.35249       67.64900
H         74.14940      103.92875       64.98866
N         69.54761      100.93299       68.65219
C         68.20184      100.96516       68.09070
C         68.27965      101.26086       66.59430
O         68.11542      102.41244       66.21471
C         67.42108      102.05139       68.86947
C         65.94376      102.15705       68.46523
C         65.26480      103.24829       69.24365
O         65.64114      104.40538       69.13726
O         64.23221      102.95750       70.05706
H         70.07471      101.82040       68.67143
H         67.66432      100.00848       68.24674
H         67.92134      103.03556       68.72163
H         67.46463      101.80882       69.95483
H         65.44154      101.18634       68.66624
H         65.84280      102.38810       67.38466
N         68.56334      100.30983       65.65324
C         68.72246       98.87797       65.90069
C         67.39274       98.23678       66.25366
O         66.44113       98.39451       65.50120
C         69.29464       98.15932       64.66037
C         70.70227       98.66875       64.33525
C         71.36708       97.83529       63.28564
O         72.46926       97.16199       63.64511
O         70.94176       97.77710       62.14320
H         68.65751      100.63735       64.67871
H         69.46516       98.71483       66.70338
H         68.62758       98.27547       63.77821
H         69.37185       97.07437       64.90365
H         71.32008       98.59407       65.25849
H         70.68963       99.73149       64.01663
N         67.27117       97.45989       67.36745
C         66.04371       96.80045       67.76184
H         65.20570       97.01116       67.06596
H         66.21131       95.70289       67.79042
H         65.75480       97.14329       68.77742
H         68.09157       97.29813       67.96382
Ca        73.96852       95.95373       62.50673
O         76.08775       96.19324       60.19685
H         76.74404       96.11600       60.93427
H         76.14901       95.32858       59.71839
O         72.89885       95.69054       59.28015
H         72.36057       96.51680       59.19043
H         73.42798       95.64681       58.44421
O         74.17533       98.76920       61.40830
H         74.17832       99.61087       61.92964
H         74.47732       99.03300       60.50321
O         71.18477       94.33629       62.17038
H         71.03051       94.13431       63.12742
H         71.22713       93.44903       61.73288
O         74.01094       93.03463       61.01047
H         73.87113       92.53949       61.85660
H         74.96214       93.30738       61.03609

Ca 1.0



