%chk=apoCaM-CA-Ng.loop2.water5.frame495.chk
%nprocshared=20
%mem=10GB
%nosave
#b3lyp/svp scf=(tight,noincore,xqc) Test 
#IOP(5/87=12) Density=Current Pop=(MK,readradii) iop(6/33=2) iop(6/42=6)

apoCaM-CA-Ng.loop2.water5.frame495 

   -2  1 
C         60.44994       44.72611       61.30040
C         60.81604       43.71423       60.25130
O         60.30156       42.60554       60.28396
H         59.70056       44.31365       62.00897
H         61.34854       45.01902       61.87658
H         60.02217       45.62929       60.81561
N         61.69157       44.04515       59.26181
C         62.04907       43.13144       58.18012
C         62.80322       41.91334       58.68929
O         63.86731       42.07435       59.26853
C         62.86910       43.84126       57.07253
C         64.22806       44.34837       57.49255
O         64.34726       45.32151       58.41358
O         65.23407       43.89972       56.96630
H         62.06512       45.00528       59.25718
H         61.10611       42.80489       57.68857
H         62.28278       44.69579       56.67266
H         63.00711       43.11248       56.24276
N         62.33558       40.65181       58.45597
C         63.09252       39.46288       58.83440
C         63.23634       39.37500       60.34340
O         62.24090       39.22458       61.03863
C         62.43629       38.19552       58.27511
H         61.44886       40.53879       57.94099
H         64.09704       39.53548       58.35987
H         61.41211       38.06396       58.68370
H         62.36977       38.26746       57.16744
H         63.04744       37.30250       58.52713
N         64.46603       39.51092       60.91488
C         64.69249       39.51295       62.35879
C         64.44778       38.12883       62.96562
O         64.31789       37.15848       62.23167
C         66.15885       39.95691       62.61307
C         66.53339       40.01359       64.06089
O         67.22626       39.12792       64.53364
O         66.12379       40.99989       64.87195
H         65.26923       39.68144       60.28943
H         64.00092       40.24606       62.82169
H         66.36833       40.94347       62.14912
H         66.81498       39.20736       62.11845
N         64.41937       37.97299       64.32187
C         64.37153       36.68691       64.99612
C         63.19516       36.54225       65.93331
O         63.17579       35.55614       66.65683
H         64.48438       38.80617       64.92463
H         65.29592       36.61441       65.61270
H         64.37693       35.83551       64.28477
N         62.19778       37.47356       66.01254
C         61.13789       37.40543       67.01143
C         59.76332       37.36708       66.37728
O         59.38032       38.31275       65.70363
C         61.23644       38.63675       67.92787
C         62.56101       38.68831       68.64402
N         62.90315       37.72696       69.53245
O         63.33131       39.61020       68.42230
H         62.20914       38.29228       65.38692
H         61.24866       36.49956       67.64503
H         60.42012       38.62352       68.68277
H         61.11773       39.55193       67.30639
H         62.26150       36.94855       69.74133
H         63.80933       37.76550       70.02105
N         58.94057       36.30494       66.60049
C         57.53862       36.29381       66.22360
C         56.75145       37.17390       67.16788
O         57.12005       37.25858       68.33266
H         59.29680       35.48877       67.12047
H         57.14689       35.26485       66.37231
H         57.39627       36.55328       65.15155
N         55.59415       37.77681       66.77648
C         54.79532       38.56741       67.71039
C         55.53838       39.83911       68.09295
O         55.77021       40.03470       69.27810
C         53.33342       38.79830       67.22744
C         53.14527       39.58807       65.92904
O         52.65707       37.56697       67.13694
H         55.26349       37.62858       65.81209
H         54.65309       37.96692       68.63972
H         52.82096       39.37761       68.02766
H         53.09570       37.02252       66.43329
H         52.05716       39.68155       65.72120
H         53.54994       40.61213       66.02580
H         53.61781       39.07145       65.06964
N         55.98754       40.72056       67.14948
C         56.75827       41.92154       67.48217
C         58.17075       41.82121       66.93846
O         58.48203       40.85752       66.25326
C         56.00239       43.21715       67.04678
C         55.61833       43.32894       65.54466
C         54.72167       43.34647       67.88851
C         56.79469       43.39539       64.57276
H         55.81532       40.51379       66.15467
H         56.90282       41.98988       68.58249
H         56.63288       44.09612       67.30347
H         55.05461       44.27925       65.41152
H         54.94412       42.49947       65.24583
H         54.97005       43.34024       68.97155
H         54.20566       44.30464       67.66684
H         54.02170       42.50989       67.67945
H         56.40756       43.57546       63.54681
H         57.47291       44.23197       64.84286
H         57.35577       42.44357       64.54659
N         59.09862       42.77489       67.24900
C         60.48998       42.70443       66.82050
C         61.38382       42.68522       68.05772
O         62.32036       43.46308       68.14007
C         60.77087       43.91697       65.90066
C         62.12186       43.90315       65.23745
O         62.44290       44.83271       64.51449
O         62.97623       42.87628       65.41310
H         58.81709       43.57628       67.83398
H         60.66572       41.77034       66.24428
H         60.66544       44.85057       66.49887
H         60.00964       43.93994       65.09181
N         61.10730       41.84685       69.09792
C         61.85531       41.85722       70.35677
C         61.78710       43.25329       70.97955
O         60.68248       43.75780       71.11701
C         61.22926       40.84623       71.34801
C         62.04084       40.72950       72.61718
C         63.29601       40.09571       72.59870
C         61.55500       41.25225       73.82787
C         64.05061       39.98836       73.77125
C         62.31852       41.15328       74.99564
C         63.56397       40.52025       74.96796
H         60.29820       41.21321       69.00926
H         62.90085       41.54955       70.15548
H         61.14737       39.83449       70.89680
H         60.19363       41.18265       71.57713
H         63.68701       39.68090       71.67890
H         60.59424       41.74978       73.86578
H         65.01385       39.49478       73.75191
H         61.94495       41.56838       75.92278
H         64.15171       40.44181       75.87368
N         62.89521       43.93937       71.40740
C         62.81211       45.24456       72.04883
C         62.76988       46.38693       71.03832
O         62.57015       47.52223       71.45183
C         64.10136       45.28724       72.87396
C         65.08275       44.59440       71.94211
C         64.24855       43.42056       71.42861
H         61.93310       45.31080       72.72726
H         64.40251       46.29563       73.23066
H         63.97129       44.62487       73.76077
H         65.28264       45.28721       71.09451
H         66.05618       44.30474       72.39094
H         64.61698       43.09633       70.43139
H         64.28566       42.57775       72.14848
N         63.01856       46.18081       69.71493
C         63.06717       47.25214       68.72515
C         61.69102       47.79049       68.36825
O         61.63357       48.75688       67.61963
C         63.73777       46.73908       67.43703
C         65.21125       46.38912       67.66912
C         65.76604       45.72947       66.45394
O         66.66256       46.24662       65.80931
O         65.36546       44.47768       66.18421
H         63.27083       45.23338       69.41117
H         63.68539       48.08640       69.12693
H         63.70854       47.51683       66.64184
H         63.17249       45.85284       67.07497
H         65.34171       45.67540       68.51131
H         65.77226       47.31685       67.91133
N         60.53917       47.22016       68.82107
C         59.24268       47.73292       68.43414
H         58.43862       47.12254       68.89541
H         59.13535       48.78572       68.77185
H         59.13317       47.68747       67.32875
H         60.56537       46.39369       69.43384
Ca        65.94286       43.19225       64.45070
O         65.01652       47.21045       63.74436
H         64.33342       47.78650       63.32007
H         65.87676       47.66297       63.55671
O         63.81926       45.66790       61.69236
H         64.11816       45.10290       60.93927
H         63.36379       46.43514       61.26290
O         66.31767       43.57610       61.16641
H         65.81761       42.84859       60.72112
H         66.51589       44.21926       60.44047
O         62.80920       42.48910       62.49685
H         62.17403       41.79227       62.19592
H         63.26201       42.78958       61.67119
O         68.07554       44.88484       63.30881
H         67.66179       45.77534       63.42995
H         68.49653       44.92925       62.41453

Ca 1.0



