%chk=apoCaM-CA-Ng.loop4.water5.frame603.chk
%nprocshared=20
%mem=10GB
%nosave
#b3lyp/svp scf=(tight,noincore,xqc) Test 
#IOP(5/87=12) Density=Current Pop=(MK,readradii) iop(6/33=2) iop(6/42=6)

apoCaM-CA-Ng.loop4.water5.frame603 

   -3  1 
C         55.08226       36.03988      -19.92581
C         54.81780       37.46911      -20.28502
O         55.71885       38.28648      -20.16236
H         56.12209       35.91431      -19.55429
H         54.38012       35.71848      -19.12980
H         54.93884       35.40071      -20.82070
N         53.58255       37.84262      -20.73841
C         53.20320       39.21521      -21.08230
C         53.96454       39.74672      -22.30032
O         53.82924       40.92495      -22.60152
C         53.40682       40.14866      -19.86930
C         52.91559       39.53505      -18.58760
O         53.73705       39.18255      -17.76666
O         51.62120       39.32756      -18.30087
H         52.85147       37.11875      -20.81141
H         52.11778       39.22695      -21.32608
H         52.93889       41.14382      -20.03228
H         54.49537       40.33283      -19.74886
N         54.78204       38.94077      -23.04841
C         55.59718       39.42357      -24.16783
C         54.71605       40.03735      -25.26497
O         53.51954       39.77962      -25.25123
C         56.52478       38.27854      -24.71552
C         55.70902       37.12382      -25.35513
C         57.46983       37.77378      -23.60215
C         56.58325       36.05353      -26.01133
H         54.84391       37.94886      -22.80002
H         56.23948       40.23384      -23.75467
H         57.17323       38.68477      -25.51251
H         55.06353       37.54462      -26.15484
H         55.05369       36.63393      -24.60550
H         56.92566       37.25679      -22.78606
H         58.22683       37.07077      -24.00319
H         58.02042       38.62510      -23.15971
H         57.23912       36.51140      -26.78211
H         57.20597       35.52388      -25.26247
H         55.93355       35.29873      -26.50166
N         55.16955       40.91898      -26.21116
C         56.54070       41.41112      -26.33320
C         56.74014       42.75106      -25.64850
O         57.88164       43.18381      -25.55457
C         57.00600       41.39660      -27.80488
C         56.26901       42.34315      -28.72314
O         55.30091       43.16271      -28.26773
O         56.56645       42.37680      -29.90613
H         54.45952       41.33072      -26.83484
H         57.22036       40.74811      -25.78151
H         56.89153       40.36170      -28.19516
H         58.08594       41.65817      -27.84377
N         55.71025       43.41659      -25.05275
C         55.93739       44.50714      -24.12570
C         56.58961       45.74592      -24.69603
O         56.75793       45.89200      -25.89826
H         54.74443       43.06822      -25.13694
H         56.59414       44.11478      -23.31834
H         54.97556       44.80822      -23.65652
N         56.99029       46.69039      -23.80172
C         57.60222       47.98357      -24.10423
C         58.94144       47.95203      -24.84929
O         59.44279       49.03063      -25.13445
C         57.78122       48.77535      -22.77576
C         58.63118       48.09196      -21.72140
O         58.85638       48.71764      -20.55144
O         59.08656       46.97123      -21.89067
H         56.79599       46.47733      -22.81057
H         56.89480       48.55406      -24.74486
H         56.78019       48.94626      -22.32552
H         58.22055       49.77086      -22.99603
N         59.59029       46.81027      -25.21350
C         60.87931       46.83678      -25.89805
C         62.05377       47.15170      -24.97851
O         63.18106       47.07106      -25.44400
H         59.16899       45.89054      -25.02987
H         60.84378       47.52422      -26.77134
H         61.07282       45.81911      -26.29813
N         61.87826       47.42360      -23.65051
C         62.94247       47.46707      -22.65302
C         63.65221       46.11960      -22.64045
O         64.87243       46.05945      -22.71052
C         63.91317       48.66043      -22.82964
C         63.28910       50.04310      -22.57238
C         62.24686       50.44969      -23.57902
N         60.99846       50.78811      -23.17995
O         62.54126       50.50789      -24.76355
H         60.92983       47.49457      -23.27984
H         62.46602       47.57335      -21.65192
H         64.39979       48.63488      -23.82706
H         64.71357       48.55211      -22.06432
H         64.10387       50.79770      -22.61719
H         62.86837       50.06702      -21.54310
H         60.73273       50.76018      -22.18487
H         60.29619       51.09771      -23.86717
N         62.90460       44.97973      -22.60109
C         63.46696       43.63795      -22.69844
C         62.72842       42.65440      -21.79061
O         63.39786       41.90665      -21.09163
C         63.55032       43.18189      -24.18603
C         64.27581       41.82990      -24.30935
C         62.19368       43.11254      -24.89089
H         61.88195       45.08832      -22.64103
H         64.52992       43.66000      -22.36537
H         64.16506       43.93380      -24.73054
H         63.70300       41.02102      -23.80756
H         64.40644       41.55564      -25.37804
H         65.28528       41.89069      -23.84864
H         61.54954       42.36101      -24.41035
H         61.68499       44.09399      -24.85929
H         62.33118       42.82718      -25.95677
N         61.36140       42.59627      -21.73940
C         60.62497       41.59899      -20.96514
C         59.90949       42.21517      -19.77128
O         59.97051       43.41948      -19.56561
C         59.59016       40.91076      -21.88854
C         60.23043       40.18524      -23.04146
N         59.90339       40.49367      -24.31735
O         61.02976       39.28834      -22.82101
H         60.80125       43.27240      -22.27744
H         61.31551       40.83242      -20.55128
H         58.87320       41.67657      -22.26366
H         59.00137       40.15803      -21.32799
H         59.22686       41.24161      -24.52007
H         60.32996       39.98703      -25.10648
N         59.18462       41.40274      -18.94713
C         58.37858       41.85288      -17.82140
C         58.71741       41.02629      -16.59172
O         58.67525       39.80750      -16.68456
C         56.90532       41.61695      -18.18095
C         55.96189       42.13592      -17.12566
C         55.20598       41.23774      -16.37012
C         55.81012       43.51314      -16.90184
C         54.28401       41.69297      -15.43007
C         54.89436       43.97409      -15.94796
C         54.12259       43.06529      -15.21455
O         53.23266       43.51782      -14.30885
H         59.15129       40.39497      -19.16282
H         58.52298       42.93875      -17.63202
H         56.75482       40.52408      -18.33914
H         56.65514       42.11511      -19.14272
H         55.34294       40.18035      -16.50993
H         56.38765       44.22686      -17.47471
H         53.69341       40.97914      -14.87494
H         54.77664       45.03729      -15.78682
H         52.68135       42.91602      -13.78760
N         59.03073       41.61118      -15.40189
C         59.34653       40.84359      -14.20104
C         58.35770       41.20795      -13.09804
O         58.59069       42.21139      -12.43880
C         60.82690       41.13777      -13.83700
C         61.41936       40.31905      -12.67567
C         60.88550       40.70771      -11.32814
O         60.26277       39.79577      -10.55849
O         61.04314       41.84448      -10.91010
H         59.05368       42.64085      -15.34297
H         59.29023       39.75897      -14.39962
H         60.97849       42.22424      -13.64934
H         61.42726       40.87616      -14.73668
H         62.51711       40.49730      -12.65150
H         61.25301       39.23702      -12.86445
N         57.18759       40.53471      -12.84701
C         56.64058       39.39678      -13.59201
C         57.49906       38.15857      -13.43595
O         57.74590       37.73841      -12.31342
C         55.19912       39.08394      -13.09110
C         54.44122       38.04845      -13.95898
C         53.09646       37.70986      -13.35569
O         53.05796       37.25007      -12.22549
O         51.92951       37.86395      -14.02749
H         56.60176       40.91773      -12.08712
H         56.56809       39.68641      -14.65584
H         54.60172       40.01786      -13.08079
H         55.25998       38.72652      -12.03930
H         55.03041       37.10885      -14.01219
H         54.30994       38.43783      -14.99085
N         57.96119       37.49923      -14.53287
C         58.76459       36.30217      -14.43171
H         59.70509       36.52234      -13.88413
H         58.19729       35.50992      -13.89838
H         59.02008       35.93269      -15.44775
H         57.72287       37.84509      -15.47306
Ca        51.53310       38.57393      -16.15373
O         49.48758       36.01672      -15.60267
H         49.26305       35.22604      -16.15474
H         49.58711       35.65899      -14.68466
O         48.41542       38.59156      -17.84719
H         48.18356       39.46895      -18.24352
H         47.54163       38.16183      -17.66715
O         48.89605       38.89939      -14.15840
H         49.28780       38.40916      -13.39248
H         48.04797       38.42475      -14.34759
O         50.79971       41.62002      -16.16246
H         51.15755       41.26560      -15.30990
H         51.60282       41.81174      -16.70903
O         53.11664       35.91222      -16.54469
H         53.95528       35.68790      -16.06941
H         53.36095       36.67622      -17.12371

Ca 1.0



