%chk=apoCaM-CA-Ng.loop4.water3.frame346.chk
%nprocshared=20
%mem=10GB
%nosave
#b3lyp/svp scf=(tight,noincore,xqc) Test 
#IOP(5/87=12) Density=Current Pop=(MK,readradii) iop(6/33=2) iop(6/42=6)

apoCaM-CA-Ng.loop4.water3.frame346 

   -3  1 
C         82.92964       79.73826       27.52719
C         83.55099       79.25262       26.25142
O         84.61796       79.73669       25.90848
H         81.97535       79.21373       27.74024
H         83.63062       79.54967       28.36903
H         82.73441       80.82846       27.45854
N         82.95793       78.26679       25.51413
C         83.53677       77.68411       24.30728
C         84.88250       77.06460       24.64209
O         85.90835       77.55287       24.20766
C         83.44565       78.62873       23.07547
C         84.17057       79.94255       23.12248
O         85.51158       79.98099       23.10218
O         83.54175       80.98879       23.09292
H         82.07267       77.86242       25.85449
H         82.89315       76.83184       23.99216
H         82.36409       78.84575       22.92912
H         83.79542       78.08275       22.17229
N         84.89718       75.96989       25.46292
C         86.04399       75.21972       25.98523
C         86.84134       74.50769       24.89376
O         86.78314       73.28557       24.85870
C         86.90949       76.05192       26.97396
C         88.01919       75.20281       27.66302
C         86.01661       76.71416       28.04359
C         87.51598       74.03973       28.53440
H         83.97590       75.62446       25.77580
H         85.58929       74.41100       26.59918
H         87.41709       76.86453       26.41091
H         88.62447       75.87337       28.31216
H         88.70091       74.78634       26.89259
H         85.30045       77.41717       27.57380
H         85.42408       75.96160       28.60348
H         86.63368       77.28887       28.76561
H         88.38283       73.52114       28.99436
H         86.86912       74.39946       29.36056
H         86.96093       73.29024       27.93500
N         87.59768       75.16950       23.96867
C         88.30051       74.47109       22.90027
C         89.43259       73.61037       23.46068
O         89.35206       72.40503       23.26917
C         88.73448       75.43648       21.77086
C         87.53628       76.06027       21.09952
O         87.38432       77.39721       21.08517
O         86.70199       75.35724       20.55101
H         87.67057       76.19003       23.99801
H         87.57749       73.78019       22.40616
H         89.29560       74.86914       20.99685
H         89.37608       76.25104       22.14537
N         90.50423       74.07456       24.17539
C         90.77357       75.47505       24.47934
C         92.04727       75.68141       25.29527
O         92.67340       74.69832       25.66476
H         91.16858       73.35844       24.50481
H         89.91877       75.90257       25.03658
H         90.92705       75.97721       23.52352
N         92.54855       76.91199       25.63202
C         92.01061       78.23077       25.31039
C         90.66350       78.45263       25.98834
O         89.64946       78.37160       25.31081
C         92.00684       78.52201       23.78291
C         91.90274       79.98855       23.44467
O         91.90334       80.33479       22.27405
O         91.85374       80.92833       24.40809
H         93.42687       76.91832       26.17540
H         92.73456       78.96879       25.71180
H         91.17325       78.01342       23.27057
H         92.96598       78.16778       23.34873
N         90.53349       78.78660       27.30820
C         91.62990       79.09659       28.21277
C         92.25287       77.89539       28.87862
O         91.81884       76.76985       28.67385
H         89.58253       78.97181       27.65874
H         91.22391       79.71188       29.04518
H         92.38598       79.72978       27.70865
N         93.28400       78.10182       29.75013
C         93.90060       77.04187       30.54411
C         92.95440       76.54169       31.63199
O         93.26495       75.53836       32.25840
C         95.16766       77.56479       31.27367
C         96.25899       78.13613       30.35082
C         96.85223       77.10345       29.43112
N         97.52259       76.03832       29.92914
O         96.74805       77.24270       28.22179
H         93.62549       79.06830       29.86082
H         94.18238       76.20826       29.86288
H         95.60945       76.75070       31.88958
H         94.85926       78.37692       31.97044
H         97.07715       78.54982       30.97898
H         95.84703       78.97835       29.75743
H         97.63903       75.91498       30.94547
H         97.94222       75.34214       29.29574
N         91.84058       77.25260       31.97965
C         90.97658       76.91846       33.10597
C         91.04371       77.99582       34.18798
O         90.36986       77.82297       35.19612
C         89.51874       76.66251       32.63197
C         89.44471       75.39944       31.76275
C         88.91708       77.85629       31.87723
H         91.61883       78.11902       31.47373
H         91.32364       75.98658       33.60551
H         88.89039       76.47232       33.53088
H         90.05338       75.51085       30.84076
H         89.81866       74.52308       32.33516
H         88.39191       75.19349       31.47446
H         88.95115       78.77479       32.49952
H         89.46267       78.03955       30.92832
H         87.85638       77.64747       31.62263
N         91.87103       79.08639       34.09954
C         92.05096       80.03243       35.19885
C         91.78615       81.48904       34.82041
O         91.81127       82.30945       35.72707
C         93.51590       79.93894       35.68693
C         93.92964       78.54167       36.07475
N         93.34456       77.90492       37.11371
O         94.81703       77.98291       35.44633
H         92.47115       79.21011       33.27175
H         91.37017       79.78089       36.04091
H         93.68685       80.61574       36.55218
H         94.17385       80.27198       34.85602
H         92.60480       78.36317       37.66394
H         93.64198       76.95262       37.37373
N         91.64818       81.91314       33.52461
C         91.69181       83.33327       33.16700
C         90.67465       83.69685       32.10240
O         90.72705       83.11360       31.02992
C         93.09763       83.65491       32.61327
C         94.17513       83.42547       33.64586
C         95.15870       82.44305       33.44419
C         94.20408       84.19319       34.82296
C         96.14683       82.22576       34.40962
C         95.19291       83.97517       35.78523
C         96.16518       82.99072       35.58498
O         97.10878       82.78925       36.52637
H         91.69894       81.22922       32.75789
H         91.52482       83.97791       34.05612
H         93.14805       84.71745       32.28879
H         93.28207       83.01834       31.71876
H         95.15621       81.83676       32.54680
H         93.46044       84.96050       34.99750
H         96.89346       81.45937       34.24496
H         95.20134       84.57206       36.68854
H         97.79698       82.11591       36.42911
N         89.80744       84.74210       32.30039
C         88.92233       85.33029       31.28827
C         87.64354       84.54286       31.02836
O         86.60051       85.17310       30.91232
C         89.68775       85.70503       29.99669
C         88.83793       86.53905       29.02382
C         89.64864       86.97171       27.83585
O         89.82444       88.28286       27.58219
O         90.14630       86.14135       27.09202
H         89.85951       85.24201       33.20103
H         88.57689       86.30416       31.70886
H         90.04035       84.79720       29.46665
H         90.57337       86.31183       30.29050
H         88.45914       87.44376       29.54754
H         87.96900       85.94651       28.66612
N         87.62398       83.18504       30.93301
C         86.41576       82.41628       30.65920
C         85.35181       82.71696       31.69406
O         84.26847       83.14725       31.32086
C         86.72205       80.89898       30.65313
C         87.74321       80.43976       29.59519
C         87.25353       80.60989       28.19017
O         87.07521       81.71823       27.71253
O         87.03718       79.51938       27.43693
H         88.49054       82.66766       31.07717
H         86.01481       82.70644       29.66515
H         85.77845       80.33248       30.49047
H         87.12239       80.61208       31.64983
H         87.91005       79.35675       29.75563
H         88.72543       80.94302       29.71120
N         85.59884       82.53964       33.01955
C         84.60841       82.84582       34.02704
H         83.70772       82.21369       33.87690
H         85.02325       82.64799       35.03744
H         84.32337       83.91811       33.96287
H         86.52101       82.19468       33.32544
Ca        87.54088       80.30826       24.88268
O         88.48534       79.90635       22.16003
H         88.88904       79.07240       22.50940
H         89.20177       80.58324       22.24426
O         86.38292       83.11336       24.10641
H         87.24738       83.42342       23.73694
H         85.87709       82.80000       23.31548
O         89.28952       82.59306       25.27745
H         89.56468       81.95364       24.57368
H         90.07290       82.65796       25.87778

Ca 1.0



