%chk=apoCaM-CA-Ng.loop4.water3.frame165.chk
%nprocshared=20
%mem=10GB
%nosave
#b3lyp/svp scf=(tight,noincore,xqc) Test 
#IOP(5/87=12) Density=Current Pop=(MK,readradii) iop(6/33=2) iop(6/42=6)

apoCaM-CA-Ng.loop4.water3.frame165 

   -3  1 
C         58.53518       58.99701       25.65221
C         57.61122       58.73410       24.50433
O         57.74322       57.69904       23.86862
H         59.08860       59.94224       25.47746
H         57.94474       59.07963       26.58858
H         59.26540       58.16643       25.76482
N         56.62056       59.62552       24.20618
C         55.64175       59.44491       23.13949
C         54.87538       58.15526       23.35479
O         54.97835       57.25275       22.54699
C         56.25052       59.67122       21.72556
C         57.37886       58.77641       21.28987
O         57.20091       57.58316       21.11448
O         58.58965       59.30783       21.03319
H         56.52399       60.46315       24.80026
H         54.88578       60.25902       23.21853
H         56.62885       60.71685       21.70535
H         55.43903       59.60156       20.96798
N         54.09139       58.03359       24.46960
C         53.27498       56.88709       24.88377
C         52.10889       56.64241       23.92241
O         50.97945       56.90906       24.31023
C         54.13244       55.62809       25.19542
C         53.29076       54.45565       25.77302
C         55.29217       55.96932       26.15292
C         52.57371       54.74747       27.09947
H         54.06933       58.84501       25.10734
H         52.81634       57.19850       25.84828
H         54.59094       55.27545       24.24955
H         53.96628       53.58880       25.93962
H         52.52700       54.14850       25.02796
H         54.92065       56.38093       27.11388
H         55.90412       55.06483       26.35843
H         55.96286       56.72600       25.70136
H         52.02846       53.83866       27.42963
H         53.29273       55.01664       27.89935
H         51.82782       55.55966       26.98862
N         52.29238       56.18130       22.65175
C         51.22240       56.11487       21.66820
C         50.28110       54.93702       21.93469
O         49.10646       55.19973       22.14850
C         51.81455       56.19912       20.23596
C         50.75058       56.19020       19.17685
O         49.80299       57.14678       19.16269
O         50.75111       55.32751       18.31318
H         53.22962       55.92624       22.33569
H         50.62746       57.05373       21.75027
H         52.55369       55.41067       20.02698
H         52.38182       57.15123       20.14795
N         50.65961       53.62336       21.94584
C         52.01671       53.17316       21.69560
C         52.16977       51.67116       21.64414
O         51.23313       50.96256       21.98496
H         49.92151       52.92475       22.12243
H         52.68764       53.58514       22.47428
H         52.28844       53.51551       20.70920
N         53.32241       51.06160       21.23286
C         54.56108       51.67951       20.73942
C         55.22379       52.64701       21.75046
O         54.99864       53.99839       21.43962
C         54.42921       52.28787       19.32213
C         53.86317       51.29711       18.34664
O         54.50797       50.14003       18.10575
O         52.81799       51.53889       17.76378
H         53.33474       50.02950       21.27648
H         55.29105       50.84657       20.62580
H         55.43274       52.60588       18.96563
H         53.79767       53.19280       19.31765
N         54.82948       52.39157       23.13943
C         55.15717       51.06761       23.68177
C         54.04624       50.64800       24.61127
O         53.08093       51.38449       24.76565
H         55.21402       53.12382       23.77646
H         56.12772       51.10698       24.22546
H         55.24260       50.29574       22.89112
N         54.11473       49.46366       25.27376
C         53.08193       49.02397       26.20567
C         53.56072       49.08335       27.64920
O         52.75956       48.79323       28.52780
C         52.44714       47.68576       25.74954
C         53.37116       46.51636       25.36185
C         54.21367       45.97318       26.48088
N         54.06294       44.69795       26.90779
O         55.06869       46.67633       26.98569
H         54.94907       48.87181       25.14195
H         52.23145       49.74178       26.21074
H         51.87508       47.91657       24.82284
H         51.70645       47.35087       26.50839
H         54.03249       46.81561       24.52166
H         52.71330       45.70549       24.97923
H         53.35548       44.07706       26.48962
H         54.66228       44.32546       27.65842
N         54.79610       49.57160       27.98104
C         55.19244       49.88478       29.35270
C         56.40276       49.09282       29.82618
O         56.76451       49.26592       30.98174
C         55.42020       51.41805       29.51471
C         54.11875       52.19603       29.27177
C         56.52442       51.95962       28.59616
H         55.46228       49.81216       27.23541
H         54.37832       49.61042       30.05994
H         55.72488       51.61431       30.56676
H         54.28367       53.28050       29.44719
H         53.75815       52.05566       28.23057
H         53.32954       51.85187       29.97348
H         57.47331       51.41174       28.76807
H         56.23356       51.86647       27.53084
H         56.70034       53.03716       28.80119
N         57.03433       48.16480       29.04484
C         58.07194       47.28227       29.57287
C         59.36621       47.27668       28.76475
O         60.35435       46.81161       29.31824
C         57.51187       45.84561       29.63918
C         56.28602       45.73756       30.51317
N         56.35493       45.98780       31.84032
O         55.21928       45.40683       30.01752
H         56.70639       48.00484       28.08793
H         58.34990       47.58755       30.60470
H         58.28102       45.14216       30.02496
H         57.23468       45.53249       28.61332
H         57.24630       46.25377       32.28186
H         55.51376       45.90409       32.43037
N         59.44173       47.65266       27.44944
C         60.66345       47.48843       26.65799
C         61.05706       48.77527       25.94400
O         60.23539       49.32438       25.22530
C         60.49934       46.37534       25.59395
C         60.13272       45.02728       26.17565
C         61.10191       44.01917       26.32945
C         58.80581       44.75576       26.54316
C         60.74935       42.77217       26.85953
C         58.45299       43.50646       27.06412
C         59.42162       42.51247       27.22869
O         59.06477       41.31516       27.73694
H         58.59705       47.97882       26.95953
H         61.50994       47.15670       27.29893
H         61.48369       46.28260       25.08302
H         59.75680       46.64468       24.81156
H         62.13231       44.19867       26.04960
H         58.04036       45.50960       26.41279
H         61.50742       42.00824       26.98101
H         57.42385       43.31078       27.33908
H         59.70245       40.59882       27.86759
N         62.34564       49.23567       26.00737
C         62.90398       50.32063       25.18889
C         62.40332       51.71887       25.52744
O         62.79596       52.64189       24.82554
C         62.70327       50.06016       23.67301
C         63.28034       48.72155       23.20077
C         63.10053       48.57403       21.71573
O         63.62108       49.37075       20.95023
O         62.36256       47.56246       21.22091
H         63.01518       48.71652       26.59578
H         64.00301       50.34733       25.36531
H         63.22009       50.86876       23.10934
H         61.62702       50.11055       23.40617
H         62.76017       47.88760       23.71587
H         64.36404       48.66741       23.44008
N         61.59014       51.98352       26.58668
C         61.07568       53.32596       26.86388
C         61.69620       53.92488       28.11195
O         61.33683       55.04522       28.44863
C         59.54299       53.25486       26.98831
C         58.88279       52.66063       25.73936
C         58.85227       53.57162       24.54986
O         59.86438       54.03418       24.04973
O         57.66741       53.71661       23.94679
H         61.31947       51.22017       27.22459
H         61.33177       54.03150       26.04642
H         59.09641       54.25010       27.20738
H         59.31861       52.58269       27.84278
H         57.82925       52.41556       25.98266
H         59.36933       51.70803       25.45824
N         62.66250       53.27349       28.82314
C         63.31728       53.84599       29.98096
H         64.40663       53.92194       29.77954
H         62.93929       54.86046       30.22673
H         63.15644       53.18633       30.85778
H         62.98038       52.33757       28.53553
Ca        57.02682       54.74263       22.07975
O         60.06921       56.17887       21.45290
H         60.26260       55.20788       21.45273
H         60.92763       56.60295       21.70533
O         57.65945       55.26176       18.93979
H         58.18470       54.45950       18.69338
H         56.81406       55.17041       18.43249
O         58.71071       52.65615       20.84919
H         59.35146       52.58439       21.60042
H         58.54096       51.72072       20.57443

Ca 1.0



