%chk=apoCaM-CA-Ng.loop3.water6.frame466.chk
%nprocshared=20
%mem=10GB
%nosave
#b3lyp/svp scf=(tight,noincore,xqc) Test 
#IOP(5/87=12) Density=Current Pop=(MK,readradii) iop(6/33=2) iop(6/42=6)

apoCaM-CA-Ng.loop3.water6.frame466 

   0  1 
C         64.87030       34.45966       99.80495
C         64.96857       33.65661      101.06762
O         64.95380       34.24891      102.13393
H         63.91478       35.02678       99.80413
H         65.71543       35.17761       99.75368
H         64.89690       33.80989       98.90584
N         65.07342       32.29623      101.02981
C         65.12759       31.45197      102.22314
C         66.36801       31.72164      103.07591
O         66.40244       31.30156      104.22455
C         63.80913       31.55274      103.03231
C         62.58509       31.15619      102.23918
O         61.37790       31.18495      102.83371
O         62.66665       30.79872      101.07354
H         65.10091       31.82634      100.11213
H         65.20902       30.38852      101.90471
H         63.66386       32.58212      103.41473
H         63.86670       30.86959      103.90672
N         67.47727       32.30527      102.53468
C         68.73651       32.47743      103.26451
C         68.62665       33.55924      104.33177
O         69.46984       33.60902      105.21626
C         69.86429       32.83230      102.27192
C         70.08253       31.70155      101.23839
C         70.87695       32.16255      100.00715
C         72.32159       32.60356      100.27388
N         73.16204       31.48898      100.71009
H         67.44594       32.58253      101.54366
H         68.99162       31.51153      103.75593
H         70.81968       33.02424      102.80713
H         69.56132       33.76773      101.75080
H         69.10915       31.36494      100.82938
H         70.53998       30.81648      101.72995
H         70.32626       33.01428       99.55052
H         70.88920       31.33824       99.26095
H         72.35034       33.42626      101.01996
H         72.73115       33.00101       99.31872
H         74.14609       31.82741      100.80881
H         72.83946       31.12068      101.63240
H         73.14251       30.72603       99.99407
N         67.62663       34.48195      104.28802
C         67.40719       35.51090      105.29730
C         67.04227       34.83628      106.61398
O         66.31775       33.85314      106.58754
C         66.29301       36.45072      104.78463
C         66.03210       37.63898      105.65994
O         66.19888       38.77298      105.23966
O         65.52457       37.44960      106.88226
H         66.98123       34.45676      103.48950
H         68.32461       36.13127      105.41007
H         65.35222       35.87643      104.67038
H         66.59636       36.82860      103.78238
N         67.52966       35.29580      107.80052
C         67.28440       34.65458      109.08852
C         65.81153       34.52248      109.42475
O         65.36511       33.42333      109.72172
H         68.11763       36.14267      107.79621
H         67.76945       35.26462      109.88145
H         67.75893       33.64934      109.09754
N         64.99989       35.61356      109.40296
C         63.57021       35.60698      109.74162
C         62.69460       34.74952      108.81727
O         61.49243       34.73773      109.04520
C         63.03858       37.06202      109.70986
C         63.81328       37.96272      110.69542
N         63.25465       37.86513      112.04011
O         63.81907       39.29633      110.27559
H         65.44543       36.51105      109.16582
H         63.44969       35.21256      110.77300
H         61.95236       37.13044      109.93372
H         63.16249       37.41431      108.66683
H         63.35545       36.88589      112.38779
H         63.80568       38.48446      112.67579
N         63.18002       33.98951      107.78861
C         62.30831       33.20064      106.93381
C         61.56352       34.12464      106.01378
O         60.36151       34.29323      106.15847
H         64.18132       33.93971      107.60127
H         61.62817       32.58962      107.56710
H         62.90325       32.50088      106.30581
N         62.24834       34.77272      105.03167
C         61.65485       35.79959      104.18968
C         61.39159       37.01890      105.03952
O         62.27179       37.42764      105.78535
C         62.60225       36.17131      103.03431
C         62.04836       37.27426      102.16242
C         60.84157       37.10202      101.46226
C         62.74005       38.49138      102.04677
C         60.33446       38.13302      100.66608
C         62.23185       39.51942      101.24970
C         61.02533       39.34403      100.55747
O         60.52047       40.33116       99.79070
H         63.24692       34.54457      104.90338
H         60.71974       35.41468      103.72673
H         62.75769       35.27502      102.40169
H         63.57900       36.48512      103.45198
H         60.29094       36.17279      101.53281
H         63.67122       38.64832      102.57726
H         59.40138       37.99132      100.13556
H         62.77480       40.45298      101.17513
H         60.96422       41.18619       99.69659
N         60.21112       37.68180      104.93981
C         59.90324       38.84035      105.76362
C         59.69292       38.35516      107.18598
O         60.35569       38.85926      108.08178
C         58.69083       39.63372      105.18978
C         58.93671       40.10637      103.72380
C         58.34721       40.85657      106.06325
C         60.10255       41.09054      103.53368
H         59.51857       37.35181      104.25121
H         60.75781       39.54860      105.74824
H         57.80460       38.96147      105.17914
H         58.01338       40.60015      103.35132
H         59.11768       39.23140      103.06824
H         58.07303       40.55786      107.08327
H         59.20713       41.55070      106.15497
H         57.48037       41.40309      105.63501
H         61.07130       40.63871      103.82813
H         60.17379       41.37336      102.46364
H         59.94441       42.02701      104.10512
N         58.83598       37.32384      107.46027
C         58.65656       36.80642      108.81537
C         57.93316       37.79797      109.71359
O         57.98476       37.63809      110.92334
C         57.92805       35.45579      108.81268
O         56.63765       35.59819      108.28626
H         58.34825       36.86427      106.67542
H         59.66960       36.62605      109.23540
H         57.87040       35.06806      109.85476
H         58.51196       34.73953      108.19196
H         56.24156       34.68829      108.28656
N         57.25512       38.85731      109.18234
C         56.64753       39.93181      109.95390
C         57.71139       40.62758      110.78453
O         57.54881       40.78807      111.98837
C         55.45208       39.42305      110.77046
H         57.18382       38.93729      108.16231
H         56.25135       40.68033      109.23068
H         54.71041       38.95166      110.09026
H         55.76282       38.67542      111.52831
H         54.95738       40.27120      111.28950
N         58.86576       41.02746      110.18239
C         59.97801       41.66217      110.86955
C         60.34936       42.93498      110.14301
O         60.64804       42.87478      108.95612
C         61.16900       40.70799      110.89377
H         58.98524       40.83048      109.17755
H         59.71729       41.88296      111.92850
H         62.02241       41.17755      111.42826
H         60.89066       39.77332      111.42678
H         61.48594       40.44914      109.86234
N         60.33806       44.13170      110.79096
C         60.62013       45.41189      110.15288
C         59.59984       45.66982      109.05625
O         59.97006       45.89085      107.91105
C         62.07933       45.50765      109.63571
C         63.11613       45.27504      110.74264
C         64.50703       45.52358      110.22785
O         65.34289       44.63525      110.24827
O         64.84451       46.74046      109.75867
H         60.08322       44.14991      111.79094
H         60.49088       46.21140      110.91610
H         62.22115       46.53163      109.22341
H         62.26213       44.78172      108.81432
H         63.02995       44.23072      111.11707
H         62.93120       45.97200      111.58682
N         58.27146       45.63580      109.35759
C         57.22310       45.84783      108.38033
H         56.59450       46.70550      108.69748
H         57.62307       46.06121      107.36688
H         56.58910       44.93832      108.32125
H         57.98257       45.43684      110.32711
Ca        64.86785       39.08543      108.27188
O         68.64379       38.94443      107.11673
H         69.13855       39.41110      106.39742
H         69.31431       38.34588      107.53122
O         64.49023       42.02602      109.30378
H         64.79075       41.91199      110.24057
H         65.32320       42.19193      108.79485
O         67.17977       41.76527      106.07494
H         66.98839       42.61339      106.54877
H         68.09309       41.88498      105.71137
O         68.14702       41.32148      109.09923
H         68.97410       41.66459      108.67643
H         67.85138       42.05260      109.69771
O         63.08138       40.85856      106.49192
H         63.15312       39.88892      106.30642
H         62.62355       40.90925      107.36850
O         67.61378       38.26177      110.11581
H         68.51553       38.66687      110.17313
H         67.45207       37.88832      111.01837

Ca 1.0



