%chk=apoCaM-CA-Ng.loop2.water4.frame680.chk
%nprocshared=20
%mem=10GB
%nosave
#b3lyp/svp scf=(tight,noincore,xqc) Test 
#IOP(5/87=12) Density=Current Pop=(MK,readradii) iop(6/33=2) iop(6/42=6)

apoCaM-CA-Ng.loop2.water4.frame680 

   -2  1 
C         -6.20053       65.12024       66.75019
C         -7.31363       65.31658       65.75991
O         -7.02152       65.50475       64.59049
H         -5.53425       66.00882       66.73719
H         -6.58780       64.98930       67.78255
H         -5.61007       64.22074       66.47752
N         -8.61377       65.32654       66.17213
C         -9.76457       65.56386       65.29959
C        -10.14963       64.31128       64.50303
O        -11.20131       63.73978       64.76145
C        -10.94479       66.06986       66.16995
C        -12.15399       66.42985       65.34782
O        -12.07942       67.28878       64.48360
O        -13.32743       65.80582       65.56638
H         -8.78690       65.24075       67.18630
H         -9.53677       66.39741       64.59847
H        -10.62312       66.98112       66.72004
H        -11.22180       65.29591       66.91970
N         -9.36624       63.84995       63.48613
C         -9.71455       62.70142       62.65360
C         -8.68588       61.59399       62.84047
O         -7.66031       61.86349       63.44758
C         -9.79915       63.18733       61.19835
H         -8.49677       64.34264       63.25571
H        -10.69788       62.29177       62.96940
H         -8.82788       63.62609       60.88709
H        -10.05040       62.39581       60.47047
H        -10.58118       63.97335       61.12477
N         -8.89241       60.29447       62.45813
C        -10.10106       59.79522       61.80756
C        -11.02964       59.13928       62.80228
O        -10.66520       58.94860       63.95297
C         -9.77143       58.85578       60.62035
C         -9.10652       57.55855       61.02180
O         -9.67372       56.49655       60.81896
O         -7.87468       57.55026       61.56431
H         -8.17947       59.60874       62.74222
H        -10.68776       60.63425       61.41035
H         -9.12492       59.38235       59.88722
H        -10.72268       58.60577       60.10173
N        -12.29806       58.82873       62.41775
C        -13.28163       58.22638       63.29366
C        -13.55730       59.10951       64.49856
O        -13.87376       60.27001       64.27753
H        -12.59423       59.04732       61.45435
H        -12.94713       57.20694       63.52694
H        -14.23400       58.12542       62.72967
N        -13.51005       58.68795       65.80005
C        -13.23753       57.32986       66.27151
C        -12.07785       57.32056       67.25464
O        -11.52284       58.37278       67.54278
C        -14.52279       56.77597       66.92443
C        -15.68066       56.77002       65.95296
N        -15.62601       56.04840       64.80835
O        -16.68012       57.42648       66.20474
H        -13.74870       59.38401       66.52587
H        -12.95386       56.64511       65.46274
H        -14.78506       57.40348       67.80562
H        -14.36754       55.73558       67.27741
H        -14.79598       55.48474       64.57569
H        -16.41799       56.05410       64.14845
N        -11.66936       56.14750       67.82355
C        -10.62278       56.06836       68.83149
C         -9.51096       55.08885       68.50505
O         -8.64511       54.93334       69.35410
H        -12.16036       55.27522       67.57749
H        -11.09626       55.72137       69.77518
H        -10.16988       57.06289       69.02994
N         -9.46244       54.36358       67.34660
C         -8.43385       53.34858       67.11030
C         -7.04391       53.97245       67.07039
O         -6.76012       54.76874       66.18646
C         -8.72907       52.55494       65.81608
C         -7.68189       51.45949       65.56689
O         -9.99649       51.95963       65.93121
H        -10.20020       54.49233       66.63912
H         -8.48734       52.62054       67.95084
H         -8.72781       53.26837       64.96196
H        -10.29400       51.73084       65.01206
H         -6.67122       51.89924       65.43115
H         -7.65508       50.74899       66.42057
H         -7.93493       50.89868       64.64278
N         -6.13313       53.65039       68.03254
C         -4.79349       54.22383       68.10526
C         -3.86461       53.54171       67.10468
O         -3.67498       52.33681       67.18569
C         -4.22557       54.10537       69.55857
C         -2.77259       54.65401       69.63911
C         -5.14269       54.86951       70.54053
C         -2.11231       54.48056       71.00759
H         -6.43309       53.01374       68.78625
H         -4.85703       55.31346       67.89768
H         -4.20833       53.03027       69.84512
H         -2.75469       55.73057       69.36289
H         -2.13299       54.09607       68.92470
H         -6.18154       54.48625       70.50989
H         -4.80488       54.75045       71.58824
H         -5.16291       55.95272       70.29015
H         -2.62671       55.07204       71.79027
H         -2.10359       53.40782       71.29490
H         -1.06312       54.84090       70.95509
N         -3.18402       54.29172       66.19294
C         -2.14637       53.80072       65.29961
C         -0.78860       54.42399       65.63788
O          0.16838       54.08739       64.95158
C         -2.50053       54.17784       63.84465
C         -3.81461       53.61164       63.39930
O         -4.80136       54.44013       63.00940
O         -3.98789       52.40434       63.36452
H         -3.36961       55.28936       66.15049
H         -2.04471       52.69691       65.38571
H         -1.71029       53.81169       63.15355
H         -2.54374       55.28662       63.75737
N         -0.61226       55.33227       66.65175
C          0.66350       55.98777       66.93349
C          0.48527       57.51199       66.85499
O          0.71921       58.18876       67.85209
C          1.18551       55.53426       68.31913
C          2.60399       55.97869       68.66214
C          3.11855       55.63924       69.92639
C          3.43425       56.70023       67.77151
C          4.41789       56.00956       70.29176
C          4.73046       57.06372       68.14123
C          5.22278       56.71982       69.39917
H         -1.40165       55.59085       67.25574
H          1.42183       55.66558       66.19122
H          1.17773       54.42295       68.35334
H          0.48219       55.89962       69.10109
H          2.51123       55.08663       70.63273
H          3.10723       56.98845       66.78438
H          4.80312       55.74402       71.26747
H          5.35418       57.61206       67.44657
H          6.22885       57.00333       69.67981
N          0.08615       58.14280       65.70646
C         -0.02683       59.59305       65.53878
C         -1.08660       60.31817       66.37066
O         -1.24516       61.51296       66.16507
C         -0.36429       59.75529       64.05119
C          0.33361       58.56199       63.44025
C         -0.04659       57.47139       64.42899
H          0.97564       60.03397       65.74268
H         -1.45732       59.59637       63.89702
H         -0.08425       60.74270       63.62538
H          0.05793       58.34394       62.38758
H          1.43414       58.73150       63.50189
H         -1.10938       57.17453       64.29395
H          0.63355       56.60862       64.29049
N         -1.82716       59.69295       67.33126
C         -2.77834       60.39174       68.18611
C         -2.03524       60.76619       69.44626
O         -1.94181       61.94554       69.75875
C         -4.05715       59.56291       68.52606
C         -4.86011       59.02826       67.31094
C         -4.23587       57.80569       66.68663
O         -4.76204       57.17337       65.61593
O         -3.25671       57.30803       67.20463
H         -1.59112       58.73431       67.57636
H         -3.12722       61.32235       67.68355
H         -4.72429       60.25094       69.09087
H         -3.82959       58.71302       69.20689
H         -4.98073       59.84599       66.57709
H         -5.86825       58.71262       67.65678
N         -1.41316       59.80495       70.18471
C         -0.59408       60.12097       71.33164
H          0.23837       60.78999       71.02265
H         -1.20447       60.61737       72.11313
H         -0.15500       59.18895       71.74755
H         -1.48561       58.81535       69.90247
Ca        -6.64539       57.42170       64.41229
O         -4.53976       57.74700       62.07741
H         -4.45433       58.70798       61.85460
H         -3.64809       57.36575       61.87846
O         -7.67496       54.45797       62.82678
H         -7.77682       53.48340       62.68275
H         -8.59973       54.81031       62.81698
O         -9.20798       56.69333       65.41410
H         -9.03055       57.66617       65.46120
H        -10.07821       56.61603       64.94982
O         -5.77779       59.98017       63.93575
H         -4.90115       60.28111       64.27792
H         -6.38434       60.01441       64.71944

Ca 1.0



