%chk=apoCaM-CA-Ng.loop3.water2.frame984.chk
%nprocshared=20
%mem=10GB
%nosave
#b3lyp/svp scf=(tight,noincore,xqc) Test 
#IOP(5/87=12) Density=Current Pop=(MK,readradii) iop(6/33=2) iop(6/42=6)

apoCaM-CA-Ng.loop3.water2.frame984 

   0  1 
C         57.53258      127.51383       80.52560
C         57.26801      128.60004       81.52963
O         56.26669      129.29061       81.40580
H         58.46843      126.96252       80.75927
H         56.69273      126.78636       80.54328
H         57.61906      127.94680       79.50860
N         58.10519      128.77518       82.58853
C         57.83826      129.72894       83.65785
C         58.03513      131.16245       83.18165
O         59.14031      131.51030       82.78760
C         58.75699      129.41083       84.85388
C         58.39905      130.13267       86.11826
O         59.12757      129.89582       87.22000
O         57.45121      130.89933       86.17470
H         58.91435      128.14027       82.67818
H         56.79282      129.56547       83.99656
H         59.81475      129.62278       84.58451
H         58.67492      128.32813       85.08624
N         56.99406      132.04520       83.17396
C         57.12447      133.41589       82.67364
C         58.03413      134.30866       83.51994
O         58.43373      135.34824       83.01372
C         55.73989      134.06595       82.41845
C         54.82992      134.20172       83.65585
C         53.44530      134.73442       83.25194
C         52.48466      134.79252       84.44943
N         51.15038      135.22362       84.03113
H         56.07058      131.69242       83.45916
H         57.60486      133.33861       81.67197
H         55.21442      133.42912       81.67315
H         55.88345      135.07005       81.96119
H         55.29844      134.87444       84.40653
H         54.67231      133.20680       84.11450
H         53.00993      134.05064       82.48963
H         53.54561      135.74743       82.80554
H         52.88035      135.49080       85.21882
H         52.40093      133.78671       84.90790
H         50.76253      134.55695       83.32367
H         50.51578      135.23212       84.86232
H         51.19226      136.18528       83.62337
N         58.39248      133.99674       84.80092
C         59.31655      134.80606       85.60136
C         60.48073      133.97265       86.18045
O         61.31725      134.55673       86.85397
C         58.54228      135.60102       86.69020
C         57.70719      134.72461       87.56841
O         56.50955      134.90823       87.70092
O         58.30739      133.68473       88.14200
H         57.96934      133.17150       85.24423
H         59.79878      135.58470       84.97019
H         57.87998      136.34881       86.20301
H         59.27484      136.15692       87.31577
N         60.64601      132.63658       85.92248
C         61.80667      131.86485       86.36927
C         61.89120      131.56796       87.86474
O         62.90685      131.01862       88.26715
H         59.98736      132.15780       85.29822
H         62.72535      132.40725       86.05256
H         61.81363      130.88229       85.84919
N         60.89718      131.88943       88.74437
C         60.99374      131.70893       90.19748
C         59.81208      130.89459       90.82059
O         59.08945      130.14736       89.89643
C         60.96213      133.09893       90.85940
C         62.06886      133.99399       90.36257
N         61.78459      135.14575       89.70902
O         63.23313      133.67733       90.55370
H         60.06422      132.32915       88.37003
H         61.95238      131.20426       90.45039
H         61.04971      133.00473       91.96247
H         59.97716      133.56879       90.63607
H         60.80944      135.42899       89.53082
H         62.54267      135.75570       89.36913
N         60.25114      130.05333       91.94338
C         59.16090      129.61855       92.83469
C         58.21257      128.63094       92.18942
O         58.67417      127.68047       91.57318
H         60.90801      130.61278       92.53595
H         58.61831      130.49323       93.25833
H         59.63387      129.08121       93.68439
N         56.86150      128.76018       92.34746
C         55.89948      127.83653       91.74436
C         55.86972      127.99825       90.23127
O         56.58227      128.83534       89.69914
C         54.47502      128.06905       92.32543
C         54.33476      127.63963       93.76930
C         53.91201      128.54692       94.75512
C         54.57633      126.30103       94.13346
C         53.73510      128.12180       96.07793
C         54.40570      125.88132       95.45485
C         53.98163      126.78634       96.43093
O         53.80744      126.35967       97.69833
H         56.50806      129.52617       92.94196
H         56.20019      126.79054       91.96443
H         53.72820      127.45820       91.78032
H         54.18546      129.13376       92.18327
H         53.70371      129.57806       94.50001
H         54.88667      125.57390       93.39429
H         53.39892      128.82830       96.82621
H         54.59376      124.84735       95.71735
H         53.50167      126.94743       98.40361
N         55.03082      127.22308       89.48112
C         54.84531      127.31628       88.03687
C         54.39120      128.71057       87.65025
O         55.19691      129.63062       87.65057
C         56.10533      126.85429       87.24907
C         55.95592      127.01584       85.71147
C         56.46449      125.40450       87.61783
C         54.78336      126.26407       85.07776
H         54.44759      126.52376       89.96355
H         54.02361      126.61044       87.78307
H         56.96790      127.49124       87.54350
H         56.89500      126.67820       85.22226
H         55.82977      128.09152       85.47538
H         56.66829      125.31905       88.70601
H         55.63584      124.70963       87.36795
H         57.37912      125.08445       87.07567
H         54.87186      125.17125       85.23862
H         53.81547      126.62435       85.48222
H         54.78278      126.45374       83.98332
N         53.08951      128.94380       87.32703
C         52.62045      130.26504       86.94054
C         51.10874      130.34553       87.04097
O         50.44953      130.70964       86.07522
C         53.14112      130.60065       85.52667
O         52.66499      129.65274       84.60931
H         52.40983      128.17147       87.40379
H         52.99955      131.00984       87.67370
H         54.25262      130.59287       85.51798
H         52.79234      131.61045       85.23579
H         53.07829      129.87742       83.73607
N         50.49383      130.02092       88.21611
C         49.05136      130.10734       88.41348
C         48.72492      130.99577       89.60849
O         49.61281      131.22747       90.41914
C         48.49609      128.69954       88.62228
H         51.07511      129.68452       89.00120
H         48.59044      130.54656       87.50670
H         48.72401      128.07375       87.73267
H         48.95616      128.22572       89.51620
H         47.40133      128.72770       88.75974
N         47.51094      131.59900       89.79635
C         46.36532      131.53655       88.89070
C         45.09266      131.22962       89.68231
O         44.84615      131.95149       90.63838
C         46.22666      132.89309       88.20155
H         47.42344      132.22479       90.61346
H         46.54697      130.81161       88.09259
H         47.15646      133.11336       87.63266
H         45.37558      132.87410       87.48875
H         46.06756      133.70392       88.94396
N         44.22516      130.20112       89.41829
C         44.29659      129.26444       88.30046
C         44.84314      127.91523       88.73295
O         45.02324      127.06435       87.87383
C         42.92794      129.11949       87.57525
C         41.83364      128.30530       88.30531
C         41.30667      128.94665       89.55298
O         41.41097      128.30798       90.73445
O         40.76726      130.04045       89.50247
H         43.46850      130.06784       90.10159
H         44.98111      129.65163       87.52892
H         43.12220      128.56845       86.62810
H         42.53984      130.12221       87.29109
H         42.22350      127.29183       88.54162
H         40.97393      128.17479       87.61298
N         45.15448      127.65219       90.03741
C         45.71572      126.39514       90.48342
H         46.69727      126.58882       90.96493
H         45.03312      125.93391       91.22657
H         45.87067      125.67876       89.65047
H         45.00374      128.36427       90.76457
Ca        57.69696      131.78526       89.15648
O         54.50195      131.72805       89.97992
H         53.99092      132.52918       89.70114
H         53.80883      131.06335       90.22099
O         54.95494      132.70496       87.01422
H         54.18071      133.31315       87.11952
H         55.48192      133.09688       86.27499

Ca 1.0



