%chk=apoCaM-CA-Ng.loop1.water3.frame294.chk
%nprocshared=20
%mem=10GB
%nosave
#b3lyp/svp scf=(tight,noincore,xqc) Test 
#IOP(5/87=12) Density=Current Pop=(MK,readradii) iop(6/33=2) iop(6/42=6)

apoCaM-CA-Ng.loop1.water3.frame294 

   0  1 
C         58.71547       59.18101       39.32689
C         57.30596       59.64864       39.10266
O         57.08369       60.47650       38.23081
H         59.35675       60.04014       39.60931
H         58.76725       58.42000       40.13529
H         59.10502       58.71974       38.39486
N         56.28931       59.13187       39.84371
C         54.88913       59.47498       39.62718
C         54.52118       60.87939       40.13099
O         53.35661       61.21727       40.03660
C         53.97012       58.44519       40.33455
C         54.14238       57.02300       39.86075
O         55.29496       56.35956       40.06851
O         53.21152       56.44459       39.32136
H         56.52114       58.41285       40.54490
H         54.66132       59.40011       38.53990
H         52.92732       58.71862       40.10574
H         54.11501       58.48635       41.43594
N         55.40480       61.74826       40.70213
C         54.97003       62.99448       41.34555
C         55.47155       64.23384       40.63271
O         56.63537       64.23941       40.25712
C         55.42658       62.99197       42.81330
C         54.62343       61.95722       43.61516
C         54.91762       62.06479       45.11552
C         54.01514       61.15107       45.96304
N         52.61311       61.58440       45.95163
H         56.40472       61.50858       40.75047
H         53.87985       63.06509       41.36929
H         55.21575       63.99028       43.25011
H         56.52194       62.81578       42.89398
H         54.83727       60.92708       43.25367
H         53.55134       62.16811       43.44083
H         54.77673       63.11264       45.46136
H         55.98011       61.78344       45.27929
H         54.37794       61.18965       47.01315
H         54.09686       60.10017       45.60785
H         52.53371       62.55953       46.32097
H         52.20430       61.55004       44.99519
H         52.05326       60.94670       46.56172
N         54.71732       65.37596       40.45172
C         53.33766       65.66612       40.89500
C         53.18219       65.57085       42.40651
O         52.69576       64.56261       42.89705
C         52.23233       64.91552       40.12337
C         52.25225       65.23406       38.66223
O         53.17365       66.07609       38.15409
O         51.43770       64.70754       37.92198
H         55.19597       66.16161       39.98306
H         53.11310       66.72205       40.63222
H         51.24802       65.24849       40.51250
H         52.29347       63.82017       40.24370
N         53.55937       66.58469       43.23632
C         53.99205       67.88316       42.73981
C         54.49932       68.80893       43.82446
O         54.64753       68.38729       44.96268
H         53.48046       66.42541       44.25244
H         53.12815       68.35843       42.22904
H         54.82616       67.74966       42.01841
N         54.85676       70.09615       43.55057
C         54.65607       70.74762       42.25461
C         53.20354       71.19003       42.07015
O         52.41168       71.07054       42.99593
C         55.61259       71.96062       42.11756
C         55.40623       73.07224       43.12185
O         56.13452       74.05054       43.08465
O         54.43858       73.01112       44.05813
H         55.29970       70.63189       44.31287
H         54.94059       70.04239       41.44392
H         55.51402       72.39648       41.10089
H         56.65583       71.59024       42.21893
N         52.80621       71.77561       40.90163
C         51.50861       72.41174       40.71794
C         50.29814       71.50090       40.74306
O         49.20240       72.03816       40.67180
H         53.48790       71.86737       40.13427
H         51.49935       72.94194       39.74128
H         51.38744       73.17769       41.51564
N         50.38662       70.14375       40.84989
C         49.20878       69.28095       40.96489
C         49.19685       68.66991       42.35576
O         50.13882       68.88650       43.10575
C         49.19653       68.24428       39.81369
C         49.08192       68.95598       38.45993
O         48.10436       67.37289       39.94708
H         51.31233       69.69486       40.89258
H         48.27347       69.87943       40.89911
H         50.14715       67.66255       39.85778
H         48.31024       66.56366       39.40947
H         49.07769       68.20999       37.63784
H         48.13518       69.53736       38.41033
H         49.93203       69.65040       38.30439
N         48.11887       67.95785       42.79969
C         47.98634       67.52373       44.18735
C         48.07818       66.01199       44.30718
O         48.25929       65.54081       45.42364
C         46.64568       68.08083       44.77244
C         46.45148       69.59936       44.50282
C         46.46645       67.77831       46.27251
C         47.52315       70.51032       45.10365
H         47.32899       67.78009       42.16442
H         48.83410       67.92454       44.78293
H         45.80948       67.57476       44.23825
H         45.46031       69.91010       44.90038
H         46.42308       69.77944       43.40647
H         47.29047       68.21615       46.87209
H         45.49983       68.19266       46.63050
H         46.42555       66.68883       46.46467
H         48.52056       70.28238       44.68019
H         47.28159       71.56519       44.85452
H         47.55993       70.41441       46.20672
N         47.95014       65.17878       43.23258
C         48.00484       63.72720       43.36204
C         48.99693       63.11538       42.39480
O         49.49832       63.80116       41.51428
C         46.58742       63.12493       43.18273
C         46.01181       63.34716       41.77840
O         45.70758       63.69773       44.11603
H         47.75249       65.57077       42.30086
H         48.34897       63.45292       44.38379
H         46.62487       62.02357       43.34596
H         45.98038       63.36933       45.01227
H         45.91250       64.42799       41.54860
H         46.65480       62.87308       41.00980
H         45.00309       62.88792       41.71345
N         49.33458       61.80481       42.51890
C         50.26384       61.13010       41.61713
C         49.69038       61.00141       40.20276
O         48.53337       61.32602       39.97970
C         50.65656       59.73195       42.18471
C         49.48381       58.75620       42.36088
O         51.30378       59.89799       43.41847
H         48.94204       61.29043       43.32093
H         51.19596       61.73576       41.56389
H         51.36040       59.26824       41.47178
H         51.97296       59.16820       43.50537
H         49.87359       57.77935       42.72009
H         48.75560       59.11696       43.11460
H         48.95939       58.58902       41.39842
N         50.46012       60.46729       39.21023
C         49.98026       60.09399       37.88737
C         50.81793       60.70168       36.74930
O         50.49952       60.44006       35.59811
C         50.08654       58.55218       37.86379
C         49.34458       57.82645       36.73595
C         49.59526       56.30343       36.77789
C         49.29894       55.60789       38.12452
N         47.91097       55.77758       38.55416
H         51.41386       60.18576       39.43554
H         48.91711       60.39729       37.76987
H         49.64019       58.19122       38.81450
H         51.16357       58.26774       37.86124
H         49.68230       58.17933       35.74211
H         48.25845       58.04180       36.82495
H         50.66650       56.11831       36.54202
H         48.98669       55.82876       35.97865
H         49.98354       55.98503       38.91559
H         49.51523       54.52297       38.01005
H         47.26093       55.39806       37.82932
H         47.76935       55.25354       39.44805
H         47.69902       56.78489       38.73231
N         51.92444       61.47596       36.97531
C         52.83218       61.90097       35.90433
C         53.40906       60.68339       35.21179
O         54.03075       59.85671       35.86615
C         53.98372       62.76654       36.47468
C         55.12848       63.09388       35.48518
C         54.72376       63.72614       34.17165
O         54.98131       63.14729       33.12849
O         54.14507       64.94163       34.11096
H         52.16670       61.73357       37.93959
H         52.27561       62.52478       35.16999
H         54.45321       62.23649       37.33341
H         53.55007       63.69624       36.86988
H         55.66329       62.14529       35.25994
H         55.85642       63.76024       35.99634
N         53.26133       60.52954       33.86845
C         53.83018       59.40827       33.15693
H         54.93285       59.39554       33.29395
H         53.39523       58.45978       33.53525
H         53.60975       59.49969       32.07225
H         52.74698       61.24070       33.32657
Ca        53.52483       66.02620       35.95863
O         51.67131       68.76302       36.28947
H         50.78717       68.74497       35.84380
H         51.74526       69.67986       36.65616
O         50.56899       65.87166       35.22005
H         49.90262       65.72712       34.50308
H         51.07097       65.01945       35.26376
O         52.43214       67.27585       33.05354
H         52.22161       66.36078       32.73870
H         53.37900       67.41432       32.79882

Ca 1.0



