%chk=apoCaM-CA-Ng.loop1.water4.frame1006.chk
%nprocshared=20
%mem=10GB
%nosave
#b3lyp/svp scf=(tight,noincore,xqc) Test 
#IOP(5/87=12) Density=Current Pop=(MK,readradii) iop(6/33=2) iop(6/42=6)

apoCaM-CA-Ng.loop1.water4.frame1006 

   0  1 
C         29.34065       18.73652       22.00852
C         29.47626       19.23567       23.41681
O         30.58314       19.29177       23.93351
H         28.89312       19.53131       21.37496
H         30.32953       18.45715       21.58760
H         28.67851       17.84518       21.99166
N         28.36603       19.62449       24.10070
C         28.39827       20.13410       25.46687
C         28.95854       19.08061       26.41461
O         28.43206       17.97874       26.48042
C         26.98641       20.58327       25.87520
C         26.94200       21.14620       27.25872
O         26.12147       20.58927       28.16788
O         27.62530       22.11347       27.55877
H         27.45782       19.56637       23.61285
H         29.04707       21.03924       25.48513
H         26.28347       19.72548       25.80833
H         26.64535       21.37379       25.17128
N         30.07348       19.36346       27.14386
C         30.80741       18.38734       27.94152
C         29.97156       17.72980       29.06468
O         29.87048       16.51274       28.98640
C         32.18925       18.98258       28.30670
C         33.11615       18.02568       29.07230
C         34.53954       18.61227       29.13455
C         35.54103       17.75471       29.92607
N         35.71118       16.41612       29.35716
H         30.47541       20.30986       27.05256
H         31.07837       17.55323       27.25109
H         32.10365       19.95163       28.82588
H         32.68163       19.21940       27.33519
H         33.15105       17.05432       28.53594
H         32.71836       17.86112       30.09671
H         34.50102       19.61417       29.61263
H         34.92520       18.74161       28.09850
H         35.21747       17.67353       30.98651
H         36.52326       18.27905       29.90708
H         34.83796       15.85486       29.47439
H         35.96576       16.47851       28.34463
H         36.48134       15.92667       29.86784
N         29.29722       18.33787       30.09781
C         29.21881       19.75779       30.40777
C         27.97708       20.05795       31.25825
O         27.77957       19.41628       32.27995
C         30.43697       20.18910       31.22340
C         30.45765       21.67554       31.31807
O         30.48468       22.34502       30.29623
O         30.49397       22.30447       32.50100
H         28.74233       17.70717       30.69867
H         29.16637       20.32664       29.45416
H         31.37034       19.87372       30.74815
H         30.43722       19.72317       32.22820
N         27.09822       21.03025       30.89366
C         25.85724       21.30088       31.60664
C         26.00237       22.06436       32.91198
O         24.97504       22.33820       33.51513
H         27.28438       21.56718       30.03840
H         25.30508       20.34913       31.76068
H         25.22685       21.94869       30.95918
N         27.20541       22.50917       33.37885
C         27.35834       23.40011       34.52815
C         26.59528       24.70482       34.24918
O         25.60327       24.95837       34.91989
C         26.89074       22.76767       35.87784
C         27.36817       21.38091       36.26747
O         26.55045       20.59665       36.72242
O         28.65606       20.98553       36.20909
H         28.05554       22.27525       32.85589
H         28.43157       23.64426       34.65477
H         25.78028       22.73526       35.92495
H         27.21843       23.46892       36.67730
N         26.92233       25.58098       33.25248
C         28.13286       25.56983       32.44802
C         29.30581       25.98938       33.30223
O         29.19414       26.99912       33.98343
H         26.27661       26.36922       33.08442
H         28.02719       26.35249       31.66544
H         28.27547       24.59780       31.92932
N         30.46815       25.27962       33.30698
C         31.58456       25.55857       34.20633
C         32.80671       24.70316       33.83231
O         33.21004       23.85006       34.60692
C         31.13106       25.36190       35.69052
C         32.19236       25.81041       36.70171
O         30.78586       24.02161       35.92192
H         30.55671       24.52199       32.63022
H         31.88431       26.62290       34.08557
H         30.24417       26.00608       35.87599
H         30.15234       24.00805       36.68699
H         32.44604       26.87844       36.53581
H         31.78930       25.70267       37.73128
H         33.11727       25.20542       36.63282
N         33.46881       24.93022       32.65428
C         34.73174       24.29563       32.24056
C         35.83746       24.64722       33.22151
O         35.77019       24.24441       34.37489
C         34.62260       22.75067       32.04428
C         33.50930       22.37614       31.05651
C         35.95023       22.11019       31.59688
C         33.72087       22.77276       29.59249
H         33.08387       25.64895       32.02284
H         35.00486       24.72792       31.25366
H         34.35167       22.29470       33.02121
H         32.60833       22.88394       31.41705
H         33.35654       21.27521       31.09334
H         36.30922       22.54754       30.64233
H         36.73553       22.26445       32.35321
H         35.82700       21.01281       31.47114
H         34.60238       22.25751       29.16058
H         32.83493       22.45818       29.00158
H         33.83350       23.86931       29.48496
N         36.89113       25.41279       32.82679
C         38.00009       25.76220       33.71532
C         38.81959       26.92660       33.17154
O         38.57451       27.39819       32.06631
C         38.93434       24.53017       33.96095
C         39.53047       23.97311       32.64983
O         38.28625       23.53285       34.71212
H         36.87903       25.77814       31.86176
H         37.58480       26.12882       34.68012
H         39.80021       24.83667       34.57936
H         37.92893       22.84053       34.10292
H         40.11796       24.75581       32.12786
H         40.20993       23.12337       32.87196
H         38.73171       23.61710       31.96571
N         39.85302       27.41816       33.91083
C         40.79184       28.41005       33.40797
C         42.01309       27.69921       32.87182
O         42.15573       26.49868       33.07209
C         41.19405       29.41134       34.51881
C         40.01487       30.29374       34.93748
O         41.68855       28.69949       35.62778
H         40.06294       26.97557       34.81824
H         40.34899       28.95527       32.54399
H         41.99433       30.07809       34.12508
H         42.04621       29.36268       36.27323
H         39.17791       29.68269       35.33400
H         40.34344       31.00536       35.72569
H         39.66083       30.88538       34.06682
N         42.91437       28.38418       32.11388
C         44.09562       27.78003       31.51298
C         43.67468       26.60565       30.64341
O         44.08191       25.48078       30.90346
C         45.11675       27.36717       32.59537
C         45.45714       28.52163       33.54809
C         46.55975       28.09760       34.52176
C         46.82339       29.17889       35.57490
N         47.91100       28.77580       36.46547
H         42.73775       29.38185       31.91705
H         44.59072       28.54140       30.86994
H         46.03989       27.02091       32.08023
H         44.72113       26.52567       33.20482
H         44.54321       28.79566       34.12051
H         45.79828       29.41054       32.97340
H         47.48963       27.90057       33.94388
H         46.25820       27.16348       35.04432
H         45.89756       29.33814       36.17267
H         47.09117       30.13783       35.07866
H         48.04316       29.50747       37.20013
H         47.68147       27.86666       36.92934
H         48.79848       28.67782       35.92040
N         42.80127       26.80545       29.61532
C         42.22209       25.70934       28.84181
C         40.70135       25.70160       28.99514
O         40.20556       24.70401       29.49877
C         42.69060       25.70715       27.36727
C         42.32655       24.39495       26.64120
C         43.06037       23.21120       27.21665
O         42.37623       22.18113       27.74975
O         44.28116       23.17941       27.20124
H         42.52001       27.77387       29.42556
H         42.59481       24.75129       29.26373
H         43.79578       25.82244       27.33219
H         42.25833       26.54855       26.79963
H         42.60930       24.47851       25.57065
H         41.22903       24.22629       26.69380
N         39.85622       26.71934       28.63416
C         40.20124       27.99040       28.02372
H         41.26568       28.12101       27.79563
H         39.64982       28.09697       27.06683
H         39.89717       28.81586       28.70148
H         38.84989       26.58566       28.82026
Ca        30.03292       21.66093       34.58638
O         31.15674       19.05543       37.14705
H         31.12938       18.84371       38.11360
H         30.87155       18.21668       36.70584
O         32.81770       19.67822       33.88534
H         32.45217       18.85816       33.46790
H         33.79765       19.59749       33.76996
O         29.73101       18.56383       34.39478
H         29.30322       17.67873       34.29049
H         28.97193       19.19219       34.46950
O         33.28998       21.61868       36.74303
H         34.14529       21.35328       36.32029
H         33.49914       21.68136       37.70886

Ca 1.0



