%chk=apoCaM-CA-Ng.loop3.water4.frame1009.chk
%nprocshared=20
%mem=10GB
%nosave
#b3lyp/svp scf=(tight,noincore,xqc) Test 
#IOP(5/87=12) Density=Current Pop=(MK,readradii) iop(6/33=2) iop(6/42=6)

apoCaM-CA-Ng.loop3.water4.frame1009 

   0  1 
C         35.08748       36.42517       13.31679
C         34.74856       37.28313       12.13288
O         33.65095       37.81934       12.07591
H         35.97995       36.83382       13.83502
H         34.24091       36.38744       14.03534
H         35.30715       35.39165       12.97387
N         35.65943       37.44901       11.13323
C         35.39748       38.24305        9.93519
C         34.18040       37.71540        9.19491
O         33.24309       38.46889        8.99219
C         36.63507       38.32232        9.00699
C         37.11410       37.00827        8.44260
O         37.58424       36.03968        9.25147
O         37.10374       36.82485        7.23590
H         36.57470       36.99007       11.24408
H         35.18693       39.29072       10.25071
H         37.47588       38.79280        9.56020
H         36.37371       38.99145        8.16033
N         34.10156       36.40914        8.82638
C         32.92355       35.81955        8.19804
C         32.82076       36.23777        6.74922
O         33.79462       36.08989        6.02209
C         32.97349       34.28315        8.27823
C         33.03877       33.81455        9.74071
C         32.94642       32.29537        9.85315
C         33.12154       31.86889       11.31589
N         32.97057       30.42396       11.46213
H         34.88824       35.79400        9.07347
H         32.00998       36.12131        8.75976
H         33.84932       33.88763        7.71747
H         32.04479       33.88325        7.81223
H         32.19920       34.26434       10.31599
H         33.99372       34.14609       10.19874
H         33.74206       31.82069        9.23825
H         31.95352       31.96571        9.47553
H         32.36619       32.38103       11.95293
H         34.13528       32.17188       11.66408
H         31.99985       30.14150       11.19416
H         33.66519       29.92498       10.86046
H         33.13586       30.16531       12.46148
N         31.64740       36.71545        6.24107
C         31.51267       37.09960        4.83650
C         32.40797       38.28437        4.50711
O         33.01778       38.85547        5.40018
C         30.03642       37.33998        4.41746
C         29.29242       38.38436        5.20385
O         28.96616       38.15555        6.48831
O         28.88958       39.39756        4.65548
H         30.83252       36.75244        6.86609
H         31.86468       36.24405        4.21809
H         29.46911       36.38944        4.51205
H         30.01660       37.61816        3.34185
N         32.57664       38.67650        3.21503
C         33.48601       39.74050        2.83666
C         34.92098       39.33744        3.13757
O         35.33780       38.33094        2.58201
H         32.06486       38.18930        2.46425
H         33.15273       40.68381        3.30013
H         33.41769       39.89691        1.73774
N         35.78289       40.03714        3.93796
C         35.48781       41.26092        4.67524
C         36.13197       41.19670        6.05903
O         37.33303       40.96566        6.11878
C         36.07726       42.45440        3.89967
C         35.66924       43.77282        4.50892
N         34.36754       44.14772        4.52489
O         36.51966       44.51348        4.97831
H         36.75879       39.69921        3.96923
H         34.40392       41.41803        4.76027
H         35.71061       42.44152        2.85088
H         37.18653       42.36433        3.87200
H         33.63900       43.54400        4.11564
H         34.08487       45.04867        4.93723
N         35.46658       41.43166        7.22540
C         34.04937       41.75170        7.31126
C         33.61605       42.10222        8.72194
O         34.43685       42.14771        9.62613
H         36.02839       41.39655        8.08902
H         33.46684       40.88483        6.94933
H         33.82534       42.63452        6.67988
N         32.30229       42.36817        8.97939
C         31.84625       42.75818       10.31510
C         30.33504       42.60349       10.46669
O         29.63258       42.43765        9.48219
C         32.29593       44.22136       10.56695
C         32.01487       44.76988       11.94230
C         31.17520       45.88598       12.10212
C         32.61975       44.19852       13.07302
C         30.94447       46.42013       13.37261
C         32.38757       44.73482       14.34330
C         31.54997       45.84973       14.49647
O         31.32462       46.38308       15.71394
H         31.63018       42.26793        8.20576
H         32.29943       42.04871       11.04193
H         31.80507       44.85792        9.79680
H         33.39062       44.31312       10.40815
H         30.70413       46.34979       11.24415
H         33.27707       43.34465       12.96896
H         30.29978       47.28336       13.48210
H         32.86379       44.28718       15.20608
H         31.73187       46.02547       16.51570
N         29.77445       42.59279       11.71355
C         28.33807       42.41103       11.93125
C         27.52005       43.50957       11.27983
O         28.04568       44.57480       10.98451
C         27.95297       42.30348       13.44954
C         28.32339       40.93867       14.07508
C         28.55149       43.44932       14.29538
C         27.43725       39.79965       13.55487
H         30.40615       42.66405       12.51749
H         28.05184       41.47981       11.41239
H         26.84718       42.39393       13.54361
H         28.13936       40.98287       15.17135
H         29.39842       40.70888       13.91379
H         28.28067       44.43882       13.87401
H         28.15900       43.39836       15.33332
H         29.65488       43.38338       14.37771
H         27.55610       39.63627       12.46937
H         27.69693       38.85423       14.07434
H         26.36806       40.02573       13.76341
N         26.20166       43.27835       11.00379
C         25.31102       44.27121       10.41904
C         24.82659       43.87088        9.03653
O         25.05395       42.75331        8.59689
C         24.09423       44.45394       11.34432
O         23.38627       43.24271       11.44198
H         25.80987       42.34965       11.22403
H         25.84356       45.24088       10.31373
H         23.43348       45.25075       10.93352
H         24.43492       44.76072       12.35579
H         22.45379       43.46772       11.69480
N         24.12190       44.78235        8.30647
C         23.48127       44.54803        7.02013
C         22.32751       43.57518        7.17053
O         22.21591       42.62927        6.40199
C         24.49008       44.15724        5.92845
H         23.99858       45.72546        8.70589
H         23.02100       45.51107        6.70551
H         25.27832       44.93422        5.84242
H         24.97176       43.18601        6.14916
H         23.97598       44.07165        4.94688
N         21.40620       43.78277        8.16108
C         20.18465       43.00601        8.35486
C         20.40223       41.52003        8.63135
O         19.40838       40.81359        8.73715
C         19.25338       43.21312        7.15171
H         21.55352       44.57581        8.80421
H         19.64823       43.42082        9.23771
H         19.06439       44.29953        7.01130
H         19.68997       42.80257        6.21895
H         18.27420       42.71996        7.33089
N         21.64124       40.96095        8.76539
C         21.83679       39.52573        8.94398
C         21.17182       39.02540       10.21397
O         20.38574       38.09102       10.13917
C         23.33564       39.14350        8.87609
C         24.19335       39.62369       10.05507
C         25.63307       39.28876        9.84152
O         26.54536       40.27143        9.84380
O         25.98820       38.13115        9.68746
H         22.47616       41.55670        8.70897
H         21.37504       39.00955        8.07104
H         23.74373       39.55517        7.92726
H         23.41665       38.03523        8.82202
H         23.87566       39.11876       10.98907
H         24.09616       40.72201       10.18003
N         21.42434       39.61243       11.41667
C         20.83874       39.13134       12.64691
H         19.73141       39.17507       12.58563
H         21.16285       38.08477       12.83168
H         21.17790       39.76127       13.49665
H         22.04855       40.43083       11.46728
Ca        28.25182       40.53300        7.78181
O         30.83309       39.52860        7.98680
H         31.60561       39.61270        7.37857
H         31.12812       39.92983        8.84091
O         29.16343       38.16637        9.97622
H         29.87588       37.70799       10.48776
H         28.53421       38.48914       10.66711
O         28.84190       42.67065        6.07969
H         29.77884       42.71162        5.76330
H         28.56870       43.61444        6.19648
O         26.02474       40.79519        6.00060
H         25.45351       40.77687        6.80851
H         25.60771       40.14258        5.38563

Ca 1.0



