%chk=apoCaM-CA-Ng.loop3.water6.frame423.chk
%nprocshared=20
%mem=10GB
%nosave
#b3lyp/svp scf=(tight,noincore,xqc) Test 
#IOP(5/87=12) Density=Current Pop=(MK,readradii) iop(6/33=2) iop(6/42=6)

apoCaM-CA-Ng.loop3.water6.frame423 

   0  1 
C         70.75877       60.87880       63.81349
C         69.55712       60.52241       64.63654
O         69.34899       59.34185       64.88374
H         71.68111       60.54208       64.33075
H         70.68933       60.37073       62.82830
H         70.82377       61.97343       63.64036
N         68.71989       61.48913       65.10832
C         67.51665       61.18541       65.87398
C         66.88875       62.45301       66.42095
O         66.59589       63.36061       65.64982
C         66.47863       60.44770       64.99850
C         65.24597       60.09747       65.79013
O         64.15805       60.54472       65.46436
O         65.33997       59.29553       66.86852
H         68.95746       62.47707       64.92130
H         67.79564       60.52595       66.72711
H         66.89983       59.50321       64.60074
H         66.20232       61.09125       64.13366
N         66.60962       62.55042       67.74965
C         65.92368       63.68154       68.36602
C         65.81781       63.44131       69.86026
O         65.39296       62.35831       70.25226
C         64.49774       63.88182       67.78524
C         63.91946       65.24299       68.21628
C         62.53056       65.49564       67.61784
C         62.06630       66.92944       67.91830
N         60.73401       67.17948       67.37006
H         66.88897       61.75779       68.35187
H         66.51543       64.60269       68.16124
H         63.83296       63.04227       68.08692
H         64.52807       63.90018       66.67893
H         64.61034       66.03513       67.84993
H         63.85644       65.31405       69.32357
H         61.81025       64.76156       68.04020
H         62.56948       65.36524       66.51400
H         62.78615       67.64713       67.46280
H         62.04970       67.10213       69.01720
H         60.46973       68.17421       67.55567
H         60.73038       67.01729       66.33668
H         60.03548       66.55179       67.82988
N         66.15193       64.40878       70.75494
C         66.08991       64.21720       72.20453
C         64.71838       63.71483       72.66073
O         63.75282       63.79198       71.91437
C         66.51154       65.53987       72.89382
C         66.36551       65.56921       74.38441
O         65.25505       65.56850       74.87352
O         67.41856       65.72165       75.20031
H         66.45972       65.32291       70.38302
H         66.81839       63.41826       72.46638
H         65.88718       66.37449       72.50069
H         67.56792       65.75074       72.62179
N         64.59568       63.11416       73.88238
C         63.35454       62.54768       74.37776
C         62.28441       63.59972       74.46629
O         61.26318       63.45919       73.80789
H         65.42774       63.02687       74.48374
H         63.52233       62.11494       75.38920
H         63.03407       61.72457       73.70242
N         62.46457       64.69786       75.25134
C         61.49527       65.77285       75.36202
C         62.05380       67.07323       74.77371
O         62.07776       68.08956       75.45152
C         61.05529       65.86422       76.84052
C         59.97255       66.88418       77.08417
N         60.15589       67.88076       77.98114
O         58.91382       66.79986       76.48004
H         63.32097       64.76775       75.81412
H         60.59080       65.53577       74.76013
H         61.94130       66.08110       77.47582
H         60.65566       64.87260       77.14753
H         61.03667       67.96125       78.51035
H         59.41352       68.57476       78.15246
N         62.43778       67.11684       73.46070
C         62.68216       68.35546       72.71941
C         63.84606       69.23699       73.15143
O         63.95174       70.33025       72.61526
H         62.42292       66.24011       72.91702
H         61.75574       68.96413       72.79232
H         62.83184       68.10992       71.64492
N         64.75132       68.85470       74.08813
C         65.82982       69.70420       74.59740
C         65.62518       69.84922       76.08814
O         65.40429       68.85471       76.76452
C         67.20315       69.09979       74.25459
C         68.33010       69.69693       75.07403
C         68.61847       71.07320       75.05553
C         69.08712       68.85341       75.90494
C         69.63508       71.58972       75.87034
C         70.10088       69.36825       76.71049
C         70.37554       70.74052       76.70179
O         71.34273       71.25084       77.49019
H         64.66395       67.91453       74.49068
H         65.81460       70.71969       74.14259
H         67.39691       69.22321       73.16640
H         67.16500       68.02330       74.45815
H         68.04831       71.74784       74.42981
H         68.88778       67.79209       75.93825
H         69.84193       72.65247       75.86427
H         70.66513       68.69757       77.34621
H         71.86444       70.69367       78.08624
N         65.66680       71.08144       76.66741
C         65.24406       71.30152       78.04245
C         63.73607       71.09361       78.09765
O         63.23855       70.60925       79.10502
C         65.65074       72.72082       78.54646
C         67.18680       72.96818       78.46711
C         65.14899       72.98217       79.98127
C         68.05334       72.03004       79.31775
H         65.92218       71.89674       76.08967
H         65.74146       70.56137       78.70484
H         65.16738       73.47655       77.88796
H         67.39482       74.01141       78.79056
H         67.52608       72.88446       77.41481
H         65.55083       72.23333       80.69459
H         65.45076       73.99780       80.31474
H         64.04340       72.93942       80.02966
H         67.80260       72.10949       80.39499
H         67.94710       70.97866       78.98804
H         69.12140       72.30996       79.20053
N         62.95286       71.38648       77.01158
C         61.51642       71.14880       76.98258
C         60.74645       72.09164       77.89120
O         59.55653       71.87575       78.06891
C         60.97644       71.26465       75.54531
O         61.17920       72.55302       75.02714
H         63.39923       71.74574       76.15444
H         61.34735       70.10499       77.31458
H         59.89745       70.98884       75.50363
H         61.50691       70.54286       74.89102
H         60.41474       73.10859       75.32974
N         61.35000       73.16080       78.49136
C         60.67920       74.08455       79.39452
C         60.10262       73.33022       80.57873
O         58.94712       73.53665       80.92860
C         59.62467       74.91280       78.63972
H         62.34892       73.34118       78.32523
H         61.44890       74.79042       79.77961
H         60.09657       75.43860       77.78264
H         58.81100       74.26756       78.24646
H         59.17314       75.67172       79.31254
N         60.85059       72.37421       81.19919
C         60.34824       71.53888       82.27786
C         61.31799       71.55697       83.43791
O         62.46537       71.16772       83.26155
C         60.15522       70.11073       81.76435
H         61.79868       72.17783       80.84203
H         59.34978       71.89228       82.61717
H         59.75323       69.46592       82.57490
H         59.42490       70.11321       80.92590
H         61.11227       69.68321       81.39670
N         60.91793       72.00189       84.66226
C         61.77270       72.04770       85.84294
C         62.97020       72.94934       85.59843
O         64.10671       72.51584       85.73879
C         62.18600       70.62903       86.30753
C         60.97189       69.74652       86.62867
C         61.40689       68.41564       87.17292
O         62.09550       67.66699       86.49771
O         61.03467       68.04077       88.41193
H         59.94936       72.33953       84.77213
H         61.18922       72.50314       86.67400
H         62.79672       70.73190       87.23235
H         62.81104       70.12914       85.53658
H         60.36436       69.58150       85.71279
H         60.33864       70.25573       87.38716
N         62.77599       74.24304       85.22692
C         63.88026       75.14865       84.99806
H         64.53455       74.75591       84.19074
H         63.49591       76.14504       84.69419
H         64.47188       75.26445       85.93131
H         61.81533       74.59688       85.10276
Ca        66.79593       66.09840       77.34300
O         66.72973       63.16661       76.86437
H         66.96020       62.46869       77.52663
H         67.51781       63.21270       76.26661
O         69.50267       65.79166       77.90004
H         70.32901       65.90336       78.43103
H         69.81214       65.67126       76.96724
O         64.09113       64.22550       78.43194
H         63.66573       64.53066       79.27218
H         63.52008       63.47816       78.12274
O         67.41146       68.39516       79.08028
H         66.96811       68.50309       79.95872
H         68.34214       68.13938       79.29903
O         64.00144       67.43634       78.92485
H         63.33344       67.08766       79.56649
H         64.47510       68.14750       79.42431
O         66.47928       65.35619       80.29234
H         65.74759       65.87952       80.70590
H         66.33655       64.43089       80.61430

Ca 1.0



