%chk=apoCaM-CA-Ng.loop1.water5.frame375.chk
%nprocshared=20
%mem=10GB
%nosave
#b3lyp/svp scf=(tight,noincore,xqc) Test 
#IOP(5/87=12) Density=Current Pop=(MK,readradii) iop(6/33=2) iop(6/42=6)

apoCaM-CA-Ng.loop1.water5.frame375 

   0  1 
C         18.30097      106.50797       14.27271
C         17.98530      105.04757       14.14429
O         18.60615      104.36205       13.34415
H         19.11178      106.80190       13.57353
H         17.39368      107.10694       14.04982
H         18.63145      106.72473       15.31147
N         17.02902      104.49567       14.93788
C         16.70899      103.07265       14.92100
C         15.98533      102.63455       13.64176
O         15.73811      101.45190       13.51927
C         15.82496      102.70124       16.14318
C         16.49784      102.94716       17.47365
O         16.71372      101.92037       18.31810
O         16.82029      104.07355       17.81446
H         16.55512      105.11232       15.61532
H         17.65689      102.49619       15.01429
H         15.57963      101.62017       16.09762
H         14.86901      103.26716       16.10660
N         15.56372      103.49006       12.66773
C         14.64594      103.05126       11.60693
C         15.35501      102.66039       10.32055
O         16.23368      103.41333        9.92351
C         13.66924      104.18775       11.25270
C         12.76076      104.57753       12.42452
C         11.72256      105.60722       11.95625
C         10.69440      105.96804       13.03782
N         11.29343      106.68513       14.16355
H         15.72659      104.49993       12.78830
H         14.03293      102.21838       11.97759
H         13.02106      103.83531       10.42028
H         14.23132      105.08064       10.89712
H         13.37476      104.98434       13.25502
H         12.22643      103.67121       12.78311
H         11.15963      105.16462       11.10487
H         12.22997      106.52826       11.59420
H         10.18866      105.04492       13.39891
H          9.92287      106.62022       12.57204
H         10.53673      106.94268       14.83746
H         11.98721      106.08563       14.66295
H         11.75353      107.56125       13.82477
N         14.98320      101.61205        9.50427
C         13.96757      100.56283        9.70997
C         12.56254      101.07782        9.98946
O         12.17557      101.13809       11.14628
C         14.42974       99.50873       10.73398
C         15.66781       98.79446       10.27292
O         16.19080       99.06014        9.05893
O         16.21525       97.98907       11.00839
H         15.48913      101.54751        8.60675
H         13.88533       99.97585        8.77243
H         13.64129       98.74216       10.87371
H         14.63291       99.99889       11.70434
N         11.67262      101.39041        9.00589
C         11.93620      101.26859        7.57513
C         10.76230      101.76104        6.73260
O          9.77184      102.21149        7.29137
H         10.74806      101.71647        9.32484
H         12.14212      100.20766        7.33125
H         12.82730      101.88038        7.32206
N         10.78216      101.77338        5.36854
C         11.86360      101.25979        4.53802
C         11.89320       99.73267        4.51181
O         12.90555       99.16631        4.89752
C         11.85754      101.90033        3.11898
C         10.60398      101.87579        2.26671
O          9.42572      101.40396        2.71016
O         10.64995      102.36557        1.15004
H          9.98167      102.22667        4.90563
H         12.83230      101.60625        4.96457
H         12.68502      101.43563        2.53985
H         12.10496      102.97761        3.24365
N         10.84027       98.99329        4.05685
C         10.84882       97.54158        3.96190
C         10.79604       96.82447        5.29562
O         10.77868       95.60207        5.27730
H          9.99636       99.46203        3.72318
H         11.73931       97.21510        3.38064
H          9.94485       97.22046        3.40008
N         10.76558       97.49219        6.48527
C         10.71863       96.82762        7.78061
C          9.55873       97.38620        8.58418
O          9.46700       98.59960        8.71715
C         12.03842       97.05188        8.55299
C         13.25628       96.60514        7.73252
O         11.98537       96.30450        9.74120
H         10.79923       98.51821        6.49345
H         10.60721       95.72626        7.66318
H         12.14331       98.13371        8.79219
H         12.79345       96.52852       10.27048
H         14.18445       96.75874        8.32268
H         13.17375       95.53003        7.46640
H         13.34410       97.20531        6.80423
N          8.68279       96.55653        9.21829
C          7.63387       97.05416       10.10967
C          8.08850       97.01478       11.56876
O          7.34993       97.49722       12.41721
C          6.26952       96.34580        9.84830
C          6.32698       94.82243       10.14142
C          5.80145       96.64037        8.41028
C          4.97626       94.11564       10.00259
H          8.85305       95.54252        9.16570
H          7.46757       98.13799        9.91795
H          5.52167       96.79980       10.53697
H          6.66763       94.67560       11.18736
H          7.04408       94.31518        9.46424
H          5.75574       97.73761        8.24177
H          6.49505       96.19391        7.66676
H          4.78018       96.24930        8.22920
H          4.60766       94.14752        8.95716
H          5.09179       93.04617       10.27898
H          4.22400       94.57750       10.67586
N          9.31706       96.53109       11.92620
C          9.88345       96.61702       13.27151
C         11.15752       97.46978       13.21677
O         11.53597       97.89152       12.13198
C         10.15061       95.18352       13.79568
C          8.84898       94.37509       13.87352
O         10.72405       95.22735       15.07524
H          9.92190       96.10766       11.21021
H          9.17609       97.12607       13.96328
H         10.85113       94.68435       13.08411
H         11.22007       94.37600       15.19906
H          8.37375       94.28813       12.87536
H          9.06178       93.34951       14.24147
H          8.13467       94.86222       14.57211
N         11.84346       97.81359       14.34813
C         13.03270       98.67204       14.34054
C         14.24129       97.96990       14.97180
O         14.12940       96.81676       15.36645
C         12.69283      100.03923       14.99649
C         12.33399       99.95584       16.47917
O         11.61490      100.62702       14.31078
H         11.48556       97.49864       15.26081
H         13.32866       98.90944       13.30072
H         13.57847      100.70982       14.93213
H         11.99047      101.29579       13.68141
H         12.13277      100.98044       16.86073
H         11.42098       99.34638       16.63598
H         13.17539       99.52599       17.06044
N         15.43420       98.62830       15.10014
C         16.64525       98.07643       15.70622
C         17.88784       98.22073       14.79695
O         18.92576       97.68189       15.15092
C         16.88691       98.87290       17.01562
C         17.95060       98.33011       17.98786
C         17.48516       97.05564       18.70482
C         18.53420       96.58224       19.72028
N         18.03304       95.45119       20.50037
H         15.46370       99.60687       14.82178
H         16.47650       97.00352       15.93444
H         15.93354       98.95319       17.58418
H         17.18019       99.90326       16.71976
H         18.10638       99.10636       18.76942
H         18.92601       98.17827       17.48677
H         17.28886       96.24130       17.97649
H         16.54118       97.28627       19.24673
H         18.78594       97.41227       20.41786
H         19.46088       96.28512       19.18048
H         18.77874       95.13272       21.16043
H         17.19811       95.74756       21.05734
H         17.77274       94.65925       19.86939
N         17.89116       98.99239       13.66319
C         19.09999       99.29871       12.88844
C         20.14795       99.95900       13.76290
O         19.87346      100.99471       14.35373
C         18.76160      100.25087       11.71060
C         19.97757      100.77883       10.90840
C         20.90521       99.71337       10.36964
O         22.06976       99.69111       10.73372
O         20.48470       98.80325        9.46979
H         17.01824       99.42861       13.35382
H         19.50789       98.35688       12.46102
H         18.22336      101.14466       12.09893
H         18.06752       99.72799       11.03951
H         20.56320      101.45275       11.57122
H         19.60502      101.39951       10.06449
N         21.39846       99.42296       13.83899
C         22.48589      100.02313       14.58204
H         23.31065      100.26961       13.87940
H         22.18140      100.95558       15.10109
H         22.86022       99.29969       15.33465
H         21.60843       98.55835       13.31778
Ca        18.38674       98.93269        8.72843
O         15.64592       99.80084        6.29199
H         14.84615       99.33198        6.63854
H         15.84242       99.35162        5.43239
O         20.19422       97.36111        6.47606
H         20.94211       97.52877        7.10254
H         20.48132       96.57045        5.95421
O         18.34335       95.98894        8.74944
H         17.83821       96.29011        9.54584
H         17.72846       95.36633        8.28728
O         20.07963      100.53963        6.11352
H         21.00415      100.66359        6.44588
H         20.18874      100.08088        5.24267
O         17.10094       96.72621        5.78764
H         17.35738       95.82616        5.46403
H         16.11647       96.75546        5.68590

Ca 1.0



