%chk=apoCaM-CA-Ng.loop1.water3.frame478.chk
%nprocshared=20
%mem=10GB
%nosave
#b3lyp/svp scf=(tight,noincore,xqc) Test 
#IOP(5/87=12) Density=Current Pop=(MK,readradii) iop(6/33=2) iop(6/42=6)

apoCaM-CA-Ng.loop1.water3.frame478 

   0  1 
C         60.01422       63.33132       78.72823
C         59.10321       63.16907       77.54623
O         58.80216       62.04867       77.15986
H         60.91723       63.90265       78.42548
H         59.48725       63.89330       79.52924
H         60.32784       62.34554       79.12996
N         58.60484       64.27576       76.93426
C         57.66114       64.24014       75.82039
C         58.25385       63.78734       74.47484
O         57.55721       63.91621       73.48460
C         56.89335       65.58694       75.71524
C         57.70712       66.79388       75.33678
O         58.69527       67.24128       76.13398
O         57.42000       67.42314       74.33172
H         58.84399       65.18379       77.35679
H         56.85934       63.52261       76.07391
H         56.39909       65.79441       76.68976
H         56.08243       65.46635       74.97000
N         59.47929       63.19866       74.33961
C         60.03019       62.77957       73.04598
C         60.11884       61.26257       72.92426
O         60.59869       60.64868       73.86725
C         61.46870       63.32764       72.87883
C         61.56669       64.76676       72.36585
C         61.03290       65.84761       73.30449
C         61.20339       67.21940       72.63246
N         60.76061       68.30242       73.50431
H         60.05203       63.01479       75.17228
H         59.40776       63.14607       72.22179
H         61.97566       62.73623       72.08793
H         62.06148       63.17156       73.80707
H         61.03868       64.82430       71.39098
H         62.64311       64.97414       72.17644
H         61.59948       65.81596       74.26023
H         59.95704       65.68450       73.51293
H         60.61127       67.24258       71.69018
H         62.27301       67.38070       72.37194
H         60.86340       69.21021       72.99606
H         59.75712       68.17285       73.75511
H         61.34610       68.32572       74.37017
N         59.83733       60.56278       71.76748
C         59.29502       61.05495       70.48702
C         59.98297       62.31184       69.96360
O         59.32253       63.33246       69.82093
C         57.77244       61.25307       70.57409
C         57.01257       59.99383       70.83555
O         57.62949       58.80606       70.96679
O         55.79908       60.04973       70.95768
H         60.06617       59.55604       71.78162
H         59.43624       60.26826       69.71153
H         57.40653       61.64485       69.60385
H         57.53710       61.97192       71.38293
N         61.29422       62.35611       69.62414
C         62.16174       61.19211       69.58706
C         63.56696       61.56955       69.15150
O         63.91170       62.74275       69.19641
H         61.65322       63.27186       69.31322
H         61.71969       60.50658       68.83392
H         62.21227       60.67975       70.57089
N         64.45049       60.66578       68.64806
C         64.19115       59.24716       68.44525
C         64.02431       59.00491       66.96081
O         64.90355       59.37071       66.19156
C         65.30672       58.36972       69.05586
C         66.68288       58.58575       68.47404
O         67.24342       57.67631       67.88381
O         67.32418       59.75873       68.63489
H         65.34206       61.04487       68.29894
H         63.25785       58.93386       68.95639
H         65.01669       57.30710       68.89502
H         65.35496       58.54278       70.15204
N         62.90131       58.40127       66.47949
C         62.66861       58.22808       65.05915
C         62.37627       59.56386       64.42448
O         63.12258       60.00695       63.56404
H         62.19005       58.04558       67.13657
H         61.77784       57.58149       64.89950
H         63.54352       57.72312       64.59442
N         61.25480       60.23893       64.79914
C         60.82447       61.51625       64.23748
C         60.59954       62.51935       65.37133
O         60.73362       62.14900       66.53031
C         59.55767       61.22065       63.37701
C         58.96556       62.39907       62.59934
O         58.54529       60.65382       64.16900
H         60.63638       59.79141       65.49520
H         61.60693       61.92786       63.56330
H         59.87990       60.49601       62.58974
H         58.58852       59.66874       64.05336
H         58.16417       62.03068       61.92513
H         58.48063       63.13360       63.26946
H         59.74590       62.89342       61.98297
N         60.22729       63.80545       65.10943
C         59.85199       64.76440       66.14115
C         58.32997       64.82420       66.21575
O         57.73211       65.86846       66.00012
C         60.53887       66.15259       65.92709
C         60.20620       66.80381       64.55187
C         62.06153       66.02312       66.11660
C         60.57334       68.28745       64.48923
H         60.12933       64.10380       64.13440
H         60.16166       64.40646       67.14939
H         60.15279       66.81471       66.73499
H         59.12047       66.76322       64.34878
H         60.71427       66.25989       63.72782
H         62.56013       67.01205       66.07090
H         62.29093       65.58794       67.11248
H         62.49993       65.36815       65.33354
H         60.26837       68.69930       63.50383
H         60.02704       68.84495       65.28106
H         61.66141       68.45207       64.60872
N         57.64186       63.71259       66.60673
C         56.19562       63.68084       66.79868
C         55.92390       63.72910       68.28733
O         55.32818       62.81905       68.84480
C         55.55122       62.46488       66.06576
C         56.07034       61.07468       66.49932
O         55.67943       62.61660       64.67500
H         58.18290       62.87793       66.87405
H         55.71892       64.59586       66.38265
H         54.46200       62.48326       66.28728
H         56.61914       62.41773       64.43561
H         55.52916       60.28689       65.93393
H         57.15176       60.95939       66.29251
H         55.90615       60.87896       67.57569
N         56.36226       64.80674       69.00139
C         56.26655       64.89520       70.45416
C         54.83839       64.76659       70.96837
O         53.89816       64.73271       70.18574
C         56.98936       66.16240       70.98957
C         56.33906       67.47505       70.54818
O         58.32544       66.16228       70.55956
H         56.84100       65.56170       68.48984
H         56.81635       64.02425       70.85815
H         56.96868       66.16129       72.10093
H         58.81002       65.52461       71.14380
H         55.29275       67.53213       70.90824
H         56.90595       68.32707       70.98230
H         56.34953       67.58214       69.44428
N         54.62967       64.61576       72.30525
C         53.34369       64.32949       72.91912
C         53.37014       62.97632       73.65393
O         52.34591       62.61102       74.21256
C         53.01159       65.43908       73.94541
C         53.08334       66.88244       73.41288
C         52.03203       67.19991       72.33963
C         52.11992       68.65203       71.82818
N         51.86099       69.64133       72.87811
H         55.43510       64.67858       72.93209
H         52.54564       64.28778       72.14701
H         53.75024       65.37157       74.77297
H         52.00487       65.25926       74.38151
H         54.10171       67.08685       73.01837
H         52.91780       67.54635       74.28609
H         51.01474       67.01555       72.74785
H         52.18613       66.52996       71.46843
H         51.36030       68.77950       71.02546
H         53.12129       68.83759       71.38070
H         50.93378       69.46080       73.32676
H         52.61720       69.62920       73.59832
H         51.84677       70.59494       72.44934
N         54.50071       62.19883       73.73802
C         54.58718       60.97657       74.54582
C         54.27867       61.29519       75.99670
O         54.92955       62.15237       76.57472
C         56.00664       60.35020       74.43585
C         56.29186       59.18514       75.41110
C         55.37056       57.98757       75.33096
O         54.66275       57.71964       76.28804
O         55.41569       57.11848       74.29931
H         55.35459       62.49602       73.24858
H         53.86154       60.22543       74.16539
H         56.76356       61.13550       74.66078
H         56.17681       60.01683       73.40000
H         56.24009       59.59568       76.44241
H         57.33701       58.83505       75.26576
N         53.31014       60.60232       76.65623
C         52.98715       60.81693       78.05143
H         51.91246       61.07460       78.14291
H         53.18614       59.88350       78.61895
H         53.58571       61.63441       78.50594
H         52.79021       59.86455       76.15835
Ca        56.53896       57.51047       72.40644
O         55.60817       56.81438       69.00270
H         54.91704       56.31534       68.49870
H         55.97882       57.45698       68.34678
O         53.67089       57.50421       71.52245
H         53.30039       57.35935       72.42913
H         52.87676       57.62385       70.94405
O         58.63349       55.69817       70.25371
H         59.45039       56.05021       70.68883
H         58.70341       56.00035       69.31331

Ca 1.0



