%chk=apoCaM-CA-Ng.loop2.water4.frame1002.chk
%nprocshared=20
%mem=10GB
%nosave
#b3lyp/svp scf=(tight,noincore,xqc) Test 
#IOP(5/87=12) Density=Current Pop=(MK,readradii) iop(6/33=2) iop(6/42=6)

apoCaM-CA-Ng.loop2.water4.frame1002 

   -2  1 
C         27.11847       31.89685       35.82933
C         26.46844       31.28246       34.61639
O         27.10262       31.27873       33.57106
H         28.12464       32.28869       35.56626
H         26.50742       32.74353       36.20277
H         27.27062       31.15846       36.63499
N         25.20186       30.76884       34.61731
C         24.30705       30.71440       35.77768
C         22.83885       30.67005       35.32835
O         22.56837       30.92360       34.16188
C         24.72796       29.57428       36.74287
C         24.58561       28.19800       36.17573
O         23.47899       27.74342       35.94347
O         25.67698       27.42956       35.99410
H         24.84948       30.42273       33.71050
H         24.38948       31.66498       36.34655
H         24.14826       29.62289       37.68654
H         25.78193       29.70820       37.03390
N         21.82941       30.39101       36.20726
C         20.40687       30.45659       35.87592
C         20.06873       29.69944       34.59598
O         19.54127       30.30084       33.66915
C         19.97181       31.92860       35.80123
H         22.06399       30.13065       37.17465
H         19.83105       30.00447       36.71382
H         20.19670       32.43668       36.76309
H         20.50198       32.46289       34.98474
H         18.87658       31.99535       35.62396
N         20.34470       28.37103       34.47241
C         20.07480       27.62597       33.24244
C         20.34505       26.13467       33.43240
O         21.44571       25.75427       33.80413
C         20.89744       28.17232       32.03135
C         22.39278       28.10530       32.20339
O         23.13222       28.33734       31.26116
O         22.91047       27.72766       33.38072
H         20.75625       27.87967       35.28093
H         18.99944       27.74395       32.98376
H         20.62249       29.21730       31.78592
H         20.62698       27.55388       31.14777
N         19.38428       25.21020       33.15829
C         19.65512       23.78433       33.24488
C         20.65554       23.29668       32.20465
O         20.98978       22.12171       32.25348
H         18.44182       25.51625       32.87415
H         18.71216       23.21797       33.08810
H         20.02856       23.55175       34.26626
N         21.13768       24.10707       31.21077
C         22.03731       23.65005       30.15299
C         23.28978       24.53893       30.13459
O         23.40065       25.42951       30.96416
C         21.22085       23.68110       28.82997
C         21.58256       22.62486       27.79785
N         20.69174       21.65262       27.48219
O         22.65755       22.64258       27.22525
H         20.80694       25.07846       31.13740
H         22.33664       22.59671       30.34537
H         21.21068       24.70142       28.39693
H         20.16773       23.45725       29.10528
H         19.76526       21.60855       27.93131
H         20.92749       20.93396       26.78206
N         24.27337       24.36381       29.21413
C         25.48327       25.16012       29.12847
C         25.27752       26.65755       28.97369
O         25.86432       27.37988       29.76455
H         24.19470       23.60993       28.53211
H         26.07461       24.81168       28.25376
H         26.09835       24.97502       30.03655
N         24.56274       27.25797       27.97993
C         23.69159       26.61859       27.00516
C         24.33740       26.60252       25.63742
O         24.28810       25.56095       24.99918
C         22.33505       27.37519       26.98557
C         21.35569       26.81314       25.94925
O         21.72844       27.29244       28.25035
H         24.61098       28.28948       27.93853
H         23.47277       25.56870       27.27276
H         22.49898       28.44573       26.71419
H         22.11053       28.01857       28.80751
H         21.14239       25.74251       26.15000
H         20.40152       27.38122       25.99037
H         21.76489       26.91589       24.92214
N         24.95080       27.70624       25.11531
C         25.52027       27.75990       23.76939
C         24.37218       27.63619       22.76090
O         24.31960       26.65320       22.03586
C         26.66836       26.69670       23.59956
C         27.71394       26.85573       24.73942
C         27.34528       26.82535       22.21819
C         28.81333       25.78999       24.73475
H         25.02243       28.55564       25.69387
H         25.99406       28.75297       23.61974
H         26.24475       25.67360       23.66559
H         27.20324       26.76342       25.72170
H         28.18049       27.86324       24.68794
H         26.62460       26.69466       21.38899
H         27.82679       27.81924       22.11008
H         28.10739       26.03387       22.07374
H         28.36714       24.77530       24.80871
H         29.44356       25.85308       23.82585
H         29.47848       25.94641       25.61030
N         23.35807       28.55375       22.67787
C         23.26925       29.78029       23.46530
C         24.30641       30.82782       23.07157
O         25.05747       31.23937       23.94371
C         21.82965       30.36642       23.51047
C         21.11078       30.71870       22.23132
O         19.88856       31.27721       22.31311
O         21.57412       30.47455       21.13231
H         22.58123       28.33548       22.03598
H         23.42839       29.53360       24.53046
H         21.86698       31.28137       24.14304
H         21.17963       29.63200       24.03439
N         24.37987       31.34587       21.81028
C         25.19625       32.50260       21.45555
C         24.27471       33.58907       20.88562
O         23.66815       33.33160       19.85286
C         26.24016       32.12048       20.38532
C         27.08845       33.31476       20.00269
C         26.85626       33.98732       18.78961
C         28.10183       33.77920       20.85978
C         27.61672       35.10854       18.44534
C         28.87326       34.89129       20.50192
C         28.62738       35.55786       19.29822
H         23.80449       30.93960       21.06595
H         25.75156       32.87302       22.34033
H         25.69403       31.74312       19.49280
H         26.89867       31.29427       20.73164
H         26.07202       33.65763       18.11999
H         28.30156       33.27491       21.79702
H         27.42059       35.63023       17.51730
H         29.66048       35.23961       21.15828
H         29.21845       36.42327       19.02620
N         24.13272       34.83427       21.44327
C         24.75845       35.29966       22.67187
C         24.35123       34.49468       23.89129
O         23.50185       33.62244       23.78360
C         24.26587       36.74648       22.80795
C         24.09942       37.15319       21.35917
C         23.43208       35.91159       20.77700
H         25.85939       35.25776       22.51530
H         23.23998       36.75055       23.24603
H         24.91633       37.40201       23.42479
H         23.54182       38.09810       21.18809
H         25.11714       37.24951       20.91353
H         22.35331       35.85695       21.04233
H         23.56741       35.91015       19.67259
N         24.97016       34.70748       25.08402
C         24.74917       33.85550       26.24801
C         25.88831       34.01886       27.25379
O         25.64141       34.36778       28.39885
C         23.33667       34.06564       26.85571
C         23.04273       35.51261       27.28812
C         21.69482       35.59875       27.94572
O         21.44920       34.90287       29.07342
O         20.82185       36.30859       27.47336
H         25.69773       35.43748       25.12834
H         24.80807       32.79233       25.93502
H         23.23433       33.38199       27.72764
H         22.56406       33.76563       26.11536
H         23.07575       36.17708       26.39730
H         23.79176       35.87550       28.01826
N         27.18544       33.74083       26.92799
C         27.62053       33.26937       25.62714
H         28.71568       33.08772       25.64166
H         27.11339       32.31643       25.37200
H         27.42488       34.02346       24.84021
H         27.90753       33.84838       27.65702
Ca        24.53993       26.19258       33.58713
O         26.98411       26.46789       32.27247
H         27.85282       26.82506       31.96688
H         26.37721       27.24958       32.23906
O         24.09358       24.74924       36.62071
H         24.50317       23.87101       36.82276
H         24.36411       25.32802       37.37726
O         26.63309       24.13434       34.33332
H         27.02582       23.64637       35.09972
H         27.02165       23.69949       33.53308
O         23.64403       23.07827       33.75619
H         22.93560       22.63021       34.28344
H         23.73520       22.52541       32.93973

Ca 1.0



