%chk=apoCaM-CA-Ng.loop3.water3.frame853.chk
%nprocshared=20
%mem=10GB
%nosave
#b3lyp/svp scf=(tight,noincore,xqc) Test 
#IOP(5/87=12) Density=Current Pop=(MK,readradii) iop(6/33=2) iop(6/42=6)

apoCaM-CA-Ng.loop3.water3.frame853 

   0  1 
C         77.85447       73.35207       82.72859
C         78.43514       74.60819       82.15102
O         79.31140       74.53888       81.30196
H         76.76357       73.32202       82.51832
H         78.32936       72.45197       82.28630
H         78.00863       73.34166       83.82820
N         77.96664       75.81062       82.57298
C         78.41872       77.09271       82.04211
C         79.89382       77.30914       82.33090
O         80.34539       76.91974       83.39779
C         77.57045       78.20999       82.67225
C         77.63073       79.51842       81.95186
O         76.96323       80.44660       82.37750
O         78.30912       79.67707       80.79957
H         77.22133       75.80401       83.28825
H         78.23951       77.09987       80.94836
H         77.84976       78.33871       83.74056
H         76.49909       77.91652       82.62514
N         80.69405       77.95738       81.43445
C         82.12615       78.15226       81.63822
C         82.45610       79.61069       81.96334
O         83.58428       79.85945       82.37565
C         82.84738       77.60436       80.38470
C         84.37561       77.49106       80.47833
C         84.92632       76.87234       79.18038
C         86.44442       76.66291       79.23808
N         86.93524       76.07275       77.99113
H         80.28185       78.31962       80.56584
H         82.44953       77.55916       82.52071
H         82.57604       78.23116       79.50771
H         82.45713       76.57746       80.20331
H         84.63604       76.83585       81.33794
H         84.83401       78.49045       80.62956
H         84.68079       77.53890       78.32399
H         84.44269       75.88504       79.00864
H         86.69076       75.98384       80.08449
H         86.95146       77.63813       79.40754
H         86.47713       75.14716       77.82338
H         86.73739       76.71206       77.18712
H         87.96841       75.92838       78.06113
N         81.54555       80.62580       81.83170
C         81.81248       82.01330       82.21008
C         80.69543       82.63673       83.06695
O         80.80839       83.80661       83.39603
C         82.14410       82.84548       80.95506
C         81.02625       82.95428       79.96127
O         79.89101       83.59513       80.28664
O         81.16662       82.51488       78.83177
H         80.63510       80.42882       81.39479
H         82.73837       82.06493       82.82717
H         83.02483       82.37333       80.46413
H         82.44625       83.87137       81.25776
N         79.62946       81.90770       83.52607
C         78.64722       82.43691       84.46864
C         77.56641       83.34686       83.89980
O         76.75533       83.79574       84.69640
H         79.58337       80.90153       83.32742
H         79.18197       82.95283       85.29580
H         78.10521       81.57841       84.92296
N         77.43264       83.62547       82.56915
C         76.32369       84.42452       82.02017
C         76.00526       83.95594       80.57118
O         75.85498       82.57624       80.59974
C         76.68295       85.92922       82.07475
C         76.78702       86.44375       83.48658
N         77.95367       86.93017       83.96758
O         75.79665       86.43028       84.20336
H         78.08502       83.17633       81.91647
H         75.39467       84.22262       82.60075
H         75.90875       86.55386       81.59138
H         77.63617       86.08290       81.52306
H         78.80054       86.95129       83.38188
H         78.01018       87.28294       84.93456
N         74.75933       84.53918       80.02128
C         74.60928       84.20159       78.59324
C         74.14764       82.77779       78.33829
O         73.71781       82.08593       79.25165
H         74.83450       85.57797       80.05071
H         75.58195       84.36909       78.08393
H         73.87315       84.88122       78.11010
N         74.25017       82.27039       77.07960
C         73.94659       80.88189       76.72234
C         74.82018       79.88929       77.48796
O         75.64960       80.28665       78.28841
C         74.14166       80.70013       75.19396
C         73.04694       81.39372       74.42255
C         71.73557       80.89054       74.48652
C         73.31151       82.52039       73.62841
C         70.70608       81.50164       73.76915
C         72.27525       83.13858       72.91821
C         70.97187       82.63086       72.98335
O         69.98595       83.23166       72.28704
H         74.59885       82.90394       76.34262
H         72.89358       80.64900       76.99239
H         74.11054       79.63618       74.88152
H         75.15029       81.08186       74.91849
H         71.51334       80.01422       75.08361
H         74.31371       82.92496       73.56515
H         69.70407       81.09444       73.82419
H         72.48552       84.01187       72.31414
H         69.07434       82.90578       72.30243
N         74.63563       78.55056       77.28302
C         75.32533       77.45403       77.96050
C         76.83014       77.51602       77.73718
O         77.47666       78.41848       78.25374
C         74.97700       77.37866       79.47641
C         75.51164       76.07495       80.13615
C         73.46596       77.53038       79.72670
C         74.88372       74.76792       79.63541
H         73.92215       78.26574       76.59661
H         74.92979       76.53081       77.48720
H         75.46642       78.23694       79.98850
H         75.33438       76.13435       81.23161
H         76.60233       75.99852       79.97146
H         72.88610       76.74357       79.20295
H         73.25340       77.48123       80.81585
H         73.10824       78.51729       79.36561
H         75.33405       73.91502       80.18544
H         73.79119       74.74864       79.82364
H         75.07697       74.60657       78.55639
N         77.45853       76.59285       76.95843
C         78.89907       76.65177       76.70195
C         79.40124       75.82290       75.51850
O         80.56718       75.98363       75.18783
C         79.68635       76.26160       77.97211
O         79.46398       74.91607       78.30217
H         76.85810       75.88993       76.51873
H         79.13773       77.70218       76.42340
H         79.42769       76.91184       78.83287
H         80.77593       76.40165       77.80584
H         78.56957       74.86915       78.72962
N         78.63170       74.92635       74.82897
C         79.15679       74.17464       73.69701
C         79.41653       75.08977       72.49939
O         78.81516       76.15390       72.44159
C         78.14798       73.09374       73.30021
H         77.67108       74.72309       75.11469
H         80.08909       73.67592       74.03530
H         77.18670       73.55272       72.98294
H         78.53653       72.48715       72.47406
H         77.95728       72.41845       74.16119
N         80.27937       74.77397       71.48425
C         81.19311       73.63946       71.51112
C         81.58621       73.20059       70.10101
O         82.14014       74.01934       69.38014
C         82.46575       74.05287       72.26242
H         80.40713       75.47546       70.73728
H         80.74195       72.80637       72.06845
H         82.22637       74.36816       73.29875
H         83.17749       73.20156       72.31028
H         82.96223       74.90700       71.75140
N         81.40931       71.92778       69.62330
C         80.74364       70.85062       70.35216
C         79.23509       71.05906       70.44505
O         78.59160       70.27869       71.13364
C         81.04798       69.44105       69.77352
C         80.45461       69.09558       68.39277
C         81.12328       69.80856       67.25695
O         82.44285       69.64074       67.04178
O         80.47624       70.52840       66.51395
H         81.81457       71.72694       68.70105
H         81.17943       70.81902       71.37405
H         80.61160       68.70822       70.48905
H         82.14553       69.26380       69.76953
H         79.35976       69.28689       68.39238
H         80.60460       68.00846       68.21845
N         78.59625       72.06778       69.77792
C         77.16588       72.29407       69.85223
H         76.65217       71.56903       70.51762
H         76.97672       73.31683       70.24116
H         76.72651       72.21051       68.83632
H         79.12674       72.71359       69.17815
Ca        77.76209       81.61792       79.87500
O         78.04418       83.55980       77.28290
H         78.03029       84.46891       77.67512
H         77.36391       83.58808       76.56353
O         80.43656       79.60908       77.96196
H         80.91788       79.88099       78.78232
H         81.09073       79.05851       77.46290
O         78.02698       80.56201       76.15955
H         77.58569       79.83863       75.64743
H         78.12131       81.30315       75.51038

Ca 1.0



