%chk=apoCaM-CA-Ng.loop2.water2.frame855.chk
%nprocshared=20
%mem=10GB
%nosave
#b3lyp/svp scf=(tight,noincore,xqc) Test 
#IOP(5/87=12) Density=Current Pop=(MK,readradii) iop(6/33=2) iop(6/42=6)

apoCaM-CA-Ng.loop2.water2.frame855 

   -2  1 
C         52.21705       48.74877      -11.08001
C         51.07661       49.25641      -11.91156
O         50.26822       48.45008      -12.34924
H         52.87486       49.57733      -10.74389
H         51.81455       48.23347      -10.18204
H         52.82104       48.02981      -11.67130
N         50.93370       50.59151      -12.15176
C         49.82242       51.15632      -12.90475
C         48.98969       51.99516      -11.94224
O         48.81072       53.19017      -12.13197
C         50.38069       51.91793      -14.12799
C         49.32637       52.41631      -15.08377
O         48.01545       52.20000      -14.85819
O         49.66799       53.00775      -16.09543
H         51.62578       51.24665      -11.75605
H         49.16437       50.34730      -13.29371
H         51.03272       51.22148      -14.70152
H         51.00461       52.77107      -13.78468
N         48.45023       51.37426      -10.85544
C         47.61949       52.01378       -9.83771
C         48.39871       53.07147       -9.04236
O         49.46789       52.72900       -8.55716
C         47.12702       50.94099       -8.85683
H         48.62942       50.36174      -10.76138
H         46.71218       52.40412      -10.32737
H         47.98361       50.44772       -8.34911
H         46.46545       51.38762       -8.08765
H         46.54725       50.16714       -9.40520
N         47.95244       54.34710       -8.78956
C         46.66834       54.88647       -9.22265
C         46.73069       56.36501       -9.57831
O         47.72179       57.02972       -9.31200
C         45.55060       54.58282       -8.19469
C         45.65543       55.28118       -6.85042
O         46.61299       54.98549       -5.94242
O         44.77442       56.05958       -6.52686
H         48.53765       54.94004       -8.18111
H         46.40012       54.41652      -10.18451
H         45.48521       53.49083       -8.02099
H         44.58735       54.88809       -8.65876
N         45.69002       56.91686      -10.26510
C         45.63906       58.29132      -10.73123
C         44.27429       58.87344      -10.44100
O         43.52168       59.05796      -11.38704
H         44.91016       56.30182      -10.54602
H         45.75504       58.25618      -11.83698
H         46.46241       58.92111      -10.33636
N         43.82225       59.15473       -9.18719
C         44.62710       59.10793       -7.97370
C         45.61751       60.26217       -8.00830
O         45.18524       61.39254       -8.19257
C         43.68747       59.23483       -6.74795
C         44.34500       59.02356       -5.40619
N         43.60888       59.14469       -4.27804
O         45.52514       58.72405       -5.32567
H         42.83763       59.45663       -9.10273
H         45.13348       58.12487       -7.90138
H         42.89329       58.46050       -6.83011
H         43.19998       60.23374       -6.76036
H         42.60841       59.38430       -4.32708
H         44.03485       59.00430       -3.35220
N         46.95354       60.06264       -7.82989
C         47.93746       61.13499       -7.91624
C         48.54311       61.50044       -6.57609
O         49.41963       62.35023       -6.55461
H         47.29222       59.11384       -7.61421
H         47.48792       62.06638       -8.32294
H         48.73545       60.81823       -8.62105
N         48.09599       60.94376       -5.41498
C         48.58699       61.30516       -4.08970
C         49.16511       60.07773       -3.40115
O         49.16237       58.99991       -3.97323
C         47.42404       61.92579       -3.26609
C         46.94159       63.24142       -3.88313
O         46.33661       61.04053       -3.18745
H         47.34595       60.24884       -5.45060
H         49.40407       62.05612       -4.15357
H         47.76773       62.18922       -2.23974
H         46.55634       60.37601       -2.48561
H         47.77575       63.97437       -3.92281
H         46.55044       63.08168       -4.91006
H         46.12825       63.67321       -3.26114
N         49.67362       60.18700       -2.14082
C         50.22230       59.06695       -1.38551
C         49.27014       58.79895       -0.24047
O         48.99867       59.70501        0.53244
C         51.66473       59.40666       -0.92292
C         52.26970       58.35140        0.04114
C         52.57417       59.62577       -2.14754
C         52.38416       56.93304       -0.52460
H         49.64727       61.10444       -1.67411
H         50.27186       58.15513       -2.01331
H         51.63461       60.36415       -0.35569
H         51.65101       58.30617        0.96312
H         53.28421       58.69083        0.34515
H         52.18801       60.45333       -2.77972
H         53.60060       59.89893       -1.82487
H         52.62464       58.71369       -2.77842
H         53.03883       56.90711       -1.41849
H         52.82959       56.27010        0.24685
H         51.38744       56.52700       -0.78506
N         48.68155       57.57126       -0.11739
C         47.59396       57.30627        0.81562
C         47.96029       56.32348        1.91573
O         47.16839       56.20805        2.84752
C         46.38030       56.78932        0.01147
C         45.87427       57.81419       -0.96962
O         45.46893       58.88221       -0.53872
O         45.77428       57.57789       -2.30130
H         48.95757       56.81325       -0.75565
H         47.31293       58.24407        1.34423
H         45.54672       56.56014        0.71137
H         46.65173       55.85359       -0.52384
N         49.09694       55.57323        1.90715
C         49.43763       54.67143        3.00433
C         50.52145       53.68744        2.58558
O         51.60246       54.13471        2.21149
C         49.93819       55.47813        4.22901
C         50.38052       54.55629        5.34681
C         51.74448       54.45178        5.67486
C         49.44779       53.76798        6.04206
C         52.16745       53.56235        6.66647
C         49.87518       52.88307        7.03839
C         51.23412       52.77708        7.34668
H         49.71954       55.61156        1.08456
H         48.52768       54.10880        3.29593
H         49.16301       56.17801        4.60709
H         50.80087       56.09476        3.89149
H         52.48441       55.04132        5.14807
H         48.39297       53.83135        5.80644
H         53.22063       53.47656        6.90157
H         49.15407       52.27284        7.56661
H         51.56493       52.08515        8.11064
N         50.34889       52.33120        2.66820
C         51.40479       51.36942        2.41623
C         51.63790       51.12239        0.93369
O         52.46658       50.27982        0.62269
C         50.90362       50.11561        3.14163
C         49.41412       50.18802        2.89024
C         49.13737       51.66865        3.12948
H         52.36559       51.67531        2.88915
H         51.40120       49.16525        2.85444
H         51.05182       50.26557        4.23724
H         49.24916       49.96311        1.81236
H         48.78690       49.50155        3.49800
H         48.22950       51.96641        2.56283
H         49.00900       51.87703        4.21038
N         50.96414       51.80943       -0.03960
C         51.18913       51.56003       -1.46109
C         52.61622       51.85979       -1.91409
O         52.93349       51.52431       -3.04760
C         50.18845       52.35011       -2.33755
C         50.35421       53.88339       -2.24580
C         49.43790       54.62079       -3.18486
O         48.66350       54.02293       -3.91582
O         49.48758       55.96404       -3.23548
H         50.24709       52.49395        0.22961
H         50.99705       50.47733       -1.63324
H         49.15063       52.07384       -2.04711
H         50.33857       52.03926       -3.39539
H         51.39499       54.16499       -2.51026
H         50.14865       54.23157       -1.21217
N         53.52171       52.49635       -1.11368
C         54.88168       52.78284       -1.52314
H         55.58618       52.29098       -0.82030
H         55.10431       52.42019       -2.54861
H         55.05008       53.87940       -1.49481
H         53.25324       52.81346       -0.17225
Ca        46.45112       56.08938       -3.91811
O         49.13256       57.39992       -6.40500
H         49.65384       56.57672       -6.57846
H         48.18716       57.11644       -6.47824
O         44.82173       53.54914       -3.43753
H         45.50524       53.23801       -4.08291
H         45.33772       53.78859       -2.62681

Ca 1.0



