%chk=apoCaM-CA-Ng.loop2.water2.frame893.chk
%nprocshared=20
%mem=10GB
%nosave
#b3lyp/svp scf=(tight,noincore,xqc) Test 
#IOP(5/87=12) Density=Current Pop=(MK,readradii) iop(6/33=2) iop(6/42=6)

apoCaM-CA-Ng.loop2.water2.frame893 

   -2  1 
C         14.53018       -8.28445       25.78147
C         13.42613       -7.32544       25.45031
O         12.42201       -7.29984       26.14801
H         15.45988       -7.71482       25.99319
H         14.27335       -8.89153       26.67549
H         14.70787       -8.96458       24.92251
N         13.55493       -6.48998       24.38320
C         12.54671       -5.50239       24.01698
C         12.36554       -4.50621       25.15040
O         11.23703       -4.30711       25.57508
C         12.94560       -4.79029       22.70917
C         11.86940       -3.85232       22.23316
O         10.75521       -4.27711       21.96858
O         12.13385       -2.54108       22.08252
H         14.41332       -6.55983       23.81391
H         11.58500       -6.03057       23.81870
H         13.10513       -5.55240       21.91475
H         13.89678       -4.23445       22.85302
N         13.44832       -3.88487       25.71307
C         13.37059       -2.97548       26.85961
C         14.78296       -2.55749       27.31193
O         15.55628       -3.46090       27.60064
C         12.70326       -3.65458       28.07084
H         14.37813       -4.09841       25.32038
H         12.71923       -2.13161       26.58393
H         11.65297       -3.94039       27.87124
H         13.26265       -4.56405       28.37553
H         12.67611       -2.94335       28.92479
N         15.21856       -1.26715       27.48911
C         14.45908       -0.05501       27.21407
C         15.24293        0.91644       26.34361
O         16.42282        0.71042       26.09856
C         13.97178        0.59630       28.52726
C         15.03076        1.16497       29.44591
O         15.00969        2.35901       29.69384
O         15.92482        0.39179       30.09794
H         16.16189       -1.14220       27.88938
H         13.55616       -0.29618       26.63632
H         13.37218       -0.14490       29.09822
H         13.28461        1.42566       28.25044
N         14.60267        1.98234       25.78968
C         15.23202        2.94422       24.90095
C         14.81478        4.34017       25.29138
O         14.02901        4.92337       24.55797
H         13.58691        2.07794       25.94513
H         14.82705        2.75005       23.88345
H         16.33520        2.83738       24.84088
N         15.22048        4.96336       26.43137
C         16.24007        4.47964       27.35514
C         17.60402        4.60968       26.68702
O         17.92304        5.69992       26.23169
C         16.17644        5.35863       28.63003
C         17.05508        4.94366       29.77735
N         17.09247        5.71873       30.88588
O         17.71871        3.92149       29.72612
H         14.78439        5.87798       26.63470
H         16.01799        3.43512       27.65344
H         15.13463        5.34616       29.01903
H         16.43333        6.40468       28.35669
H         16.52632        6.57656       30.94472
H         17.69285        5.48331       31.68397
N         18.47024        3.55929       26.60926
C         19.76802        3.64650       25.94502
C         20.93566        3.69645       26.91390
O         22.06606        3.74046       26.45049
H         18.21429        2.66766       27.05602
H         19.83797        4.56421       25.32254
H         19.87160        2.77909       25.25781
N         20.74562        3.74192       28.26260
C         21.81525        3.86047       29.24984
C         21.81120        2.64274       30.16433
O         20.98296        1.76217       29.98163
C         21.64367        5.19101       30.03270
C         21.86089        6.39905       29.11443
O         20.36140        5.28321       30.59688
H         19.79003        3.71262       28.62711
H         22.81302        3.87781       28.75895
H         22.41173        5.27746       30.83344
H         20.33918        4.66077       31.36724
H         21.74863        7.34096       29.69298
H         22.88681        6.37501       28.68759
H         21.12562        6.40943       28.28197
N         22.74257        2.50790       31.15422
C         22.85922        1.31160       31.98628
C         22.51378        1.68670       33.42182
O         23.37300        1.76172       34.28922
C         24.25645        0.65124       31.79943
C         24.28059       -0.72034       32.53172
C         24.55343        0.46586       30.29332
C         25.63521       -1.42651       32.49429
H         23.42525        3.26557       31.30746
H         22.12147        0.54043       31.67005
H         25.03558        1.32404       32.22123
H         23.51481       -1.39498       32.08691
H         24.02332       -0.57923       33.60131
H         24.55305        1.44289       29.76559
H         25.55913        0.03453       30.12507
H         23.79134       -0.18985       29.81951
H         25.56438       -2.37671       33.06479
H         25.93567       -1.68495       31.45952
H         26.41278       -0.78624       32.96049
N         21.21095        1.94769       33.70393
C         20.66366        2.41117       34.97735
C         20.84080        1.49232       36.18691
O         20.39547        1.91726       37.24731
C         19.14104        2.64456       34.80310
C         18.84605        3.66453       33.74619
O         19.25838        4.80444       33.89212
O         18.10617        3.37665       32.65251
H         20.55987        1.87025       32.91244
H         21.15649        3.37765       35.22941
H         18.69980        3.02411       35.75105
H         18.64587        1.68230       34.54845
N         21.46466        0.27507       36.16785
C         21.59799       -0.53398       37.38299
C         21.30355       -1.99992       37.10401
O         22.02887       -2.56705       36.29698
C         23.01160       -0.34466       37.98058
C         23.18226       -1.04177       39.32000
C         23.31977       -2.44116       39.40123
C         23.21158       -0.28947       40.50945
C         23.47374       -3.06997       40.64044
C         23.35937       -0.92401       41.74774
C         23.49033       -2.31279       41.81306
H         21.90109       -0.06745       35.30066
H         20.91528       -0.14312       38.15633
H         23.13734        0.75058       38.13193
H         23.81076       -0.66750       37.27881
H         23.32089       -3.05155       38.50992
H         23.10764        0.78784       40.48287
H         23.58210       -4.14590       40.69114
H         23.37188       -0.33862       42.65822
H         23.60750       -2.80203       42.77175
N         20.33234       -2.72231       37.76041
C         20.22371       -4.17662       37.67554
C         19.95197       -4.76496       36.30361
O         19.97685       -5.98244       36.18840
C         19.07926       -4.52432       38.63152
C         19.21310       -3.43802       39.67397
C         19.45979       -2.21123       38.80451
H         21.18735       -4.58286       38.05812
H         18.10348       -4.35504       38.11919
H         19.10371       -5.56488       39.02026
H         18.35371       -3.34296       40.37101
H         20.13699       -3.63971       40.26439
H         18.51218       -1.86494       38.33315
H         19.89768       -1.43011       39.45462
N         19.67522       -3.98456       35.22093
C         19.44457       -4.54662       33.89203
C         20.67641       -5.23700       33.31302
O         20.54631       -5.87569       32.27699
C         18.96160       -3.45220       32.91867
C         20.02559       -2.37109       32.65137
C         19.45866       -1.30364       31.77621
O         19.36132       -0.05067       32.24134
O         19.06827       -1.56400       30.65064
H         19.57940       -2.97029       35.35777
H         18.62776       -5.29698       33.98734
H         18.05208       -2.97784       33.35069
H         18.67263       -3.92023       31.95126
H         20.91969       -2.80793       32.15717
H         20.35588       -1.90298       33.60190
N         21.90785       -5.12558       33.88831
C         23.08186       -5.75017       33.32296
H         23.97259       -5.50375       33.93982
H         22.95265       -6.85244       33.30451
H         23.25146       -5.37346       32.29182
H         22.04024       -4.56363       34.73794
Ca        17.18124        1.56911       31.60763
O         15.74715       -0.32214       33.41824
H         15.60767       -1.13158       32.86539
H         16.68098       -0.39846       33.73910
O         18.91205        0.49343       28.51786
H         18.42215        0.34852       27.67228
H         19.68777       -0.11818       28.45481

Ca 1.0



