%chk=apoCaM-CA-Ng.loop3.water4.frame1018.chk
%nprocshared=20
%mem=10GB
%nosave
#b3lyp/svp scf=(tight,noincore,xqc) Test 
#IOP(5/87=12) Density=Current Pop=(MK,readradii) iop(6/33=2) iop(6/42=6)

apoCaM-CA-Ng.loop3.water4.frame1018 

   0  1 
C         42.26573       18.93258       29.28462
C         41.97755       18.62510       27.84468
O         41.74898       19.54303       27.06944
H         42.23862       20.02793       29.46898
H         41.50567       18.44304       29.92895
H         43.27270       18.55067       29.55493
N         41.98244       17.33374       27.41268
C         41.71961       16.96001       26.02829
C         40.33598       17.39337       25.56367
O         40.25139       18.01225       24.51370
C         41.99679       15.45990       25.75440
C         41.26440       14.41809       26.56428
O         41.46415       13.23906       26.32086
O         40.43616       14.73930       27.57204
H         42.20626       16.59449       28.09636
H         42.45834       17.48572       25.37925
H         43.08228       15.28079       25.91661
H         41.78415       15.27544       24.67968
N         39.21319       17.15943       26.29901
C         37.89043       17.57666       25.85264
C         37.45804       16.75969       24.64667
O         37.46257       15.53808       24.72303
C         36.85337       17.42313       26.98608
C         35.51884       18.08723       26.59947
C         34.48789       18.00529       27.72841
C         33.21451       18.77612       27.34891
N         32.21692       18.70324       28.41488
H         39.30212       16.72782       27.22651
H         37.93086       18.66342       25.61185
H         37.23978       17.94484       27.88945
H         36.70590       16.34961       27.23865
H         35.09679       17.60732       25.68971
H         35.71550       19.15939       26.37494
H         34.91400       18.45247       28.65300
H         34.24132       16.93902       27.92499
H         32.78336       18.35582       26.41310
H         33.47296       19.84368       27.16537
H         31.93109       17.70937       28.56983
H         32.60498       19.10303       29.30008
H         31.37632       19.25824       28.13387
N         37.00073       17.37653       23.52178
C         36.47201       16.63518       22.37763
C         37.55117       15.85182       21.64027
O         38.72561       15.97450       21.95946
C         35.72588       17.58125       21.39715
C         36.60027       18.61088       20.72399
O         36.73895       18.59438       19.51124
O         37.19007       19.58598       21.43962
H         36.94511       18.40420       23.53079
H         35.71261       15.91738       22.76079
H         34.91032       18.10723       21.93748
H         35.24064       16.96580       20.60985
N         37.20295       15.05134       20.59261
C         38.16740       14.41375       19.71863
C         38.95970       13.31481       20.39743
O         38.33860       12.33184       20.77560
H         36.20720       14.94927       20.34700
H         38.77768       15.20151       19.25162
H         37.62487       13.93038       18.87658
N         40.32092       13.31958       20.53891
C         41.21999       14.44246       20.26377
C         42.07717       14.71527       21.50365
O         42.11189       13.86933       22.38670
C         42.08145       14.11926       19.02677
C         41.22559       14.00419       17.78624
N         41.15106       12.84445       17.09313
O         40.59548       14.97750       17.39913
H         40.75516       12.45251       20.89538
H         40.64641       15.36061       20.07493
H         42.63896       13.17495       19.20919
H         42.82493       14.91548       18.83647
H         41.67301       12.01023       17.39648
H         40.56317       12.77991       16.24818
N         42.74776       15.88647       21.71801
C         42.73349       17.02471       20.81072
C         43.29654       18.28844       21.43744
O         43.71368       18.28668       22.58768
H         43.24206       15.97418       22.61907
H         41.68873       17.26142       20.53493
H         43.30018       16.78665       19.88933
N         43.29617       19.43655       20.70923
C         43.75207       20.73137       21.20572
C         42.53461       21.70388       21.16555
O         41.88043       21.63771       19.93365
C         44.98923       21.13628       20.35204
C         45.72392       22.36474       20.83668
C         45.90548       23.46938       19.98330
C         46.21457       22.43072       22.15281
C         46.54537       24.62308       20.44726
C         46.85005       23.58646       22.61385
C         47.01351       24.68878       21.76359
O         47.61342       25.81417       22.20099
H         42.94854       19.38965       19.73812
H         44.07338       20.64772       22.26409
H         44.67716       21.25255       19.29041
H         45.71977       20.29927       20.39551
H         45.53788       23.44527       18.96507
H         46.09299       21.59582       22.83014
H         46.66869       25.47106       19.78539
H         47.20830       23.62575       23.63479
H         47.93813       25.90423       23.10845
N         42.77904       23.09552       21.63683
C         41.71814       24.08653       21.31937
C         41.67442       24.42800       19.82771
O         42.57913       24.05365       19.09213
C         41.89406       25.39736       22.15914
C         41.62777       25.19433       23.67013
C         43.29142       26.02116       21.96878
C         40.16220       24.87660       23.98513
H         43.65356       23.47062       21.24235
H         40.74303       23.65748       21.57988
H         41.15599       26.15212       21.80749
H         41.85491       26.14589       24.20063
H         42.29073       24.40331       24.08180
H         44.08587       25.36362       22.38024
H         43.49748       26.21380       20.89539
H         43.35360       26.99208       22.50511
H         39.84014       23.91297       23.54865
H         40.02573       24.81274       25.08493
H         39.50479       25.68615       23.59941
N         40.62771       25.13980       19.31580
C         40.53116       25.51079       17.90768
C         39.27982       24.92971       17.25892
O         38.42864       24.38254       17.94393
C         40.53585       27.04790       17.82202
O         40.54234       27.48515       16.49206
H         39.87230       25.44219       19.95070
H         41.40786       25.12004       17.34681
H         41.45220       27.42669       18.32658
H         39.63437       27.44064       18.34734
H         40.44598       28.47202       16.52415
N         39.11399       25.03948       15.90995
C         37.93408       24.63729       15.15467
C         36.71070       25.41980       15.59883
O         35.64464       24.84178       15.76481
C         37.71554       23.11794       15.18123
H         39.87049       25.47352       15.36114
H         38.12256       24.91884       14.09469
H         37.45740       22.77690       16.20086
H         36.87712       22.83967       14.50678
H         38.62951       22.59033       14.83575
N         36.80745       26.76767       15.80371
C         35.68846       27.65002       16.12242
C         34.94386       27.32734       17.41940
O         33.96695       28.01432       17.68829
C         34.71776       27.68152       14.93304
H         37.72921       27.21501       15.68588
H         36.08726       28.68357       16.22945
H         33.91738       28.43177       15.10574
H         35.26672       27.97507       14.01232
H         34.24339       26.69314       14.76568
N         35.30877       26.32243       18.27295
C         34.50256       25.97183       19.44521
C         34.44471       27.08368       20.48432
O         33.62576       26.99237       21.38863
C         35.01870       24.66423       20.09046
C         36.34816       24.87181       20.82990
C         37.02268       23.57550       21.13902
O         36.50124       22.71995       21.83615
O         38.25229       23.40349       20.63592
H         36.13857       25.75496       18.06235
H         33.47483       25.77211       19.06753
H         35.13804       23.91399       19.27676
H         34.27932       24.26117       20.81717
H         36.18280       25.44983       21.76485
H         37.04386       25.45672       20.19031
N         35.31849       28.13092       20.45928
C         35.30099       29.16982       21.46376
H         34.33068       29.70769       21.43391
H         35.45358       28.72611       22.47088
H         36.12016       29.89488       21.26996
H         36.04413       28.18817       19.73043
Ca        39.72339       21.72877       20.62661
O         40.46831       19.19817       18.56614
H         40.60630       19.55291       17.65238
H         39.79590       18.47975       18.45742
O         39.81957       21.12291       23.68288
H         40.79696       21.13274       23.84156
H         39.43449       21.59363       24.46387
O         38.60321       21.47495       18.04957
H         38.37439       20.81934       17.34517
H         37.73808       21.69283       18.47945
O         39.90860       19.00672       21.53795
H         39.56477       18.23138       21.02939
H         40.59900       18.63068       22.13496

Ca 1.0



