%chk=apoCaM-CA-Ng.loop3.water2.frame965.chk
%nprocshared=20
%mem=10GB
%nosave
#b3lyp/svp scf=(tight,noincore,xqc) Test 
#IOP(5/87=12) Density=Current Pop=(MK,readradii) iop(6/33=2) iop(6/42=6)

apoCaM-CA-Ng.loop3.water2.frame965 

   0  1 
C         78.52665      112.11907       54.83803
C         79.60833      112.22670       55.86967
O         79.36213      112.74140       56.95177
H         77.57712      112.55797       55.21044
H         78.83555      112.63670       53.90795
H         78.34912      111.04374       54.61425
N         80.83166      111.69054       55.61467
C         81.85757      111.57447       56.63697
C         82.52113      112.91797       56.97431
O         83.12318      113.53926       56.11142
C         82.87406      110.48511       56.22765
C         83.69819      110.00526       57.38321
O         84.45994      109.06254       57.24633
O         83.59330      110.59960       58.57955
H         80.97451      111.22099       54.70648
H         81.35052      111.16006       57.53206
H         83.51850      110.82848       55.39148
H         82.30840      109.59569       55.88637
N         82.46586      113.38533       58.25384
C         83.10804      114.58879       58.78805
C         84.62107      114.48840       58.65660
O         85.26155      115.42431       58.20075
C         82.80001      114.70903       60.31542
C         81.30434      114.88580       60.65630
C         81.00523      114.69033       62.15732
C         81.64071      115.73784       63.08392
N         81.29868      115.46104       64.48170
H         81.95925      112.80607       58.91989
H         82.72975      115.50200       58.27756
H         83.36014      115.56999       60.74206
H         83.16370      113.78410       60.81604
H         80.70775      114.11028       60.13730
H         80.94491      115.87649       60.30433
H         81.34848      113.67689       62.46047
H         79.90277      114.72997       62.29616
H         81.26695      116.74810       62.80708
H         82.74654      115.72720       62.97969
H         81.68042      114.52947       64.76739
H         81.71791      116.19723       65.09446
H         80.26058      115.46628       64.61146
N         85.24271      113.36008       59.09308
C         86.68275      113.15803       59.22142
C         87.24449      112.15254       58.22462
O         88.44936      111.93782       58.24783
C         86.98689      112.72459       60.68755
C         86.00693      111.68901       61.23842
O         85.28940      112.00284       62.17269
O         85.82451      110.48330       60.65224
H         84.63457      112.59049       59.39132
H         87.23322      114.10116       59.00423
H         86.88218      113.63439       61.31952
H         88.03966      112.38214       60.78607
N         86.46920      111.52713       57.29625
C         86.99854      110.60188       56.30152
C         87.64522      109.33733       56.85826
O         88.16159      108.57820       56.05095
H         85.47329      111.76211       57.24324
H         87.75643      111.14298       55.69472
H         86.17994      110.29688       55.61409
N         87.69389      109.04737       58.19434
C         88.44136      107.92153       58.75285
C         87.53738      107.02050       59.59500
O         86.60230      107.50888       60.21424
C         89.56762      108.50897       59.64151
C         90.62551      107.53290       60.11381
N         91.55622      107.93598       61.00831
O         90.66981      106.39150       59.68459
H         87.24293      109.67958       58.86239
H         88.91145      107.32847       57.93784
H         89.09293      108.98914       60.52519
H         90.10836      109.29994       59.07676
H         91.53916      108.89268       61.38993
H         92.28649      107.28427       61.33280
N         87.83029      105.69617       59.73198
C         87.13923      104.77929       60.62545
C         85.69359      104.57682       60.25152
O         85.40713      104.32114       59.09054
H         88.62309      105.30695       59.20464
H         87.23688      105.12475       61.67933
H         87.64093      103.79058       60.55597
N         84.72713      104.60993       61.21320
C         83.30931      104.41221       60.92575
C         82.74245      105.59109       60.14996
O         83.44841      106.54945       59.87289
C         82.50515      104.27110       62.25080
C         82.74989      102.98988       63.00384
C         83.22847      103.01849       64.32298
C         82.43027      101.75321       62.41535
C         83.37824      101.82985       65.04408
C         82.58293      100.56657       63.13706
C         83.05120      100.59976       64.45411
O         83.17212       99.44811       65.14443
H         85.01676      104.75169       62.19369
H         83.17013      103.48959       60.32145
H         81.41452      104.26390       62.06041
H         82.70496      105.15343       62.89089
H         83.46703      103.96044       64.80068
H         82.04246      101.70695       61.40526
H         83.73606      101.86767       66.06493
H         82.32208       99.62176       62.67637
H         83.47134       99.42907       66.06456
N         81.41804      105.58988       59.83270
C         80.67842      106.70813       59.27618
C         80.82540      107.94044       60.22713
O         81.79306      108.83735       59.73172
C         81.00663      106.95919       57.77139
C         80.15287      108.09556       57.13842
C         80.84958      105.65943       56.95797
C         78.63751      107.86926       57.12350
H         80.85808      104.75700       60.06768
H         79.61721      106.37626       59.30015
H         82.07203      107.26506       57.68641
H         80.47568      108.23462       56.08480
H         80.34697      109.04527       57.67301
H         79.81419      105.26462       57.02325
H         81.09933      105.83864       55.89060
H         81.53743      104.87444       57.33596
H         78.14799      108.74309       56.64288
H         78.37025      106.96750       56.53703
H         78.22970      107.77715       58.14884
N         79.52436      108.61752       60.39188
C         79.55793      109.69009       61.40588
C         78.42783      109.57140       62.41107
O         77.26764      109.54608       62.01971
C         79.43700      111.05295       60.72309
O         80.51188      111.25101       59.86455
H         78.82927      107.89126       60.68333
H         80.52103      109.67295       61.95904
H         79.41158      111.87488       61.47627
H         78.49569      111.11315       60.13521
H         81.30993      111.36211       60.44657
N         78.71350      109.57411       63.74198
C         77.68875      109.57993       64.78406
C         78.28940      109.95949       66.14289
O         79.50682      109.96890       66.27161
C         76.99484      108.20726       64.83346
H         79.70653      109.65832       64.00289
H         76.96742      110.38654       64.52542
H         77.74251      107.41527       65.04859
H         76.21402      108.15234       65.61276
H         76.51079      107.97566       63.86210
N         77.54396      110.37775       67.20805
C         76.08971      110.49507       67.25715
C         75.55835      109.74939       68.48325
O         76.35906      109.40238       69.34051
C         75.74498      111.98789       67.33714
H         78.06287      110.68703       68.04604
H         75.63539      110.09709       66.34042
H         76.19798      112.44241       68.24392
H         76.15072      112.50835       66.44280
H         74.65847      112.17837       67.36381
N         74.23826      109.46372       68.69551
C         73.15582      109.65401       67.73736
C         73.36792      108.72776       66.55524
O         73.42443      109.20050       65.42886
C         71.79779      109.37185       68.42087
C         70.60319      109.66637       67.49800
C         69.27858      109.46663       68.18594
O         69.21058      109.06379       69.47089
O         68.24587      109.67899       67.57151
H         73.99986      109.02560       69.60052
H         73.11681      110.70860       67.40789
H         71.71877      110.03881       69.30854
H         71.75182      108.31798       68.77374
H         70.64250      109.00112       66.60929
H         70.66049      110.72301       67.15681
N         73.51623      107.38662       66.75655
C         73.75740      106.43482       65.69172
H         74.72970      105.92802       65.86961
H         72.95182      105.67172       65.69100
H         73.79253      106.91602       64.69227
H         73.47724      107.01516       67.71753
Ca        83.84430      109.27027       60.80327
O         82.57317      110.80043       62.99271
H         81.77598      111.32432       63.25466
H         83.31148      111.19428       63.51855
O         83.11008      107.65936       63.00940
H         83.59968      107.29552       63.78870
H         82.21531      107.89792       63.35895

Ca 1.0



