%chk=apoCaM-CA-Ng.loop2.water5.frame1458.chk
%nprocshared=20
%mem=10GB
%nosave
#b3lyp/svp scf=(tight,noincore,xqc) Test 
#IOP(5/87=12) Density=Current Pop=(MK,readradii) iop(6/33=2) iop(6/42=6)

apoCaM-CA-Ng.loop2.water5.frame1458 

   -2  1 
C         50.58339       97.90422       70.91425
C         51.74312       97.79358       69.95342
O         52.67250       98.57209       70.10808
H         49.74353       97.21756       70.70612
H         50.93871       97.71479       71.94808
H         50.17206       98.93371       70.85873
N         51.79576       96.90537       68.91486
C         50.77374       95.89131       68.64844
C         50.80191       95.25583       67.25383
O         49.83564       94.56501       66.95695
C         50.84172       94.77412       69.72954
C         52.17291       94.06107       69.80524
O         52.35793       93.11716       70.74700
O         53.09243       94.33681       69.04998
H         52.61700       96.99023       68.30777
H         49.78664       96.40000       68.67004
H         50.04497       94.02064       69.54682
H         50.66248       95.20211       70.73317
N         51.82390       95.39502       66.35236
C         51.81424       94.74073       65.04514
C         51.57846       93.25598       65.21745
O         50.63878       92.72936       64.63812
C         53.14084       94.99135       64.31186
H         52.66225       95.93414       66.58985
H         50.99593       95.16709       64.42298
H         53.29009       96.08211       64.16211
H         54.00061       94.59759       64.89622
H         53.13171       94.49946       63.31609
N         52.36394       92.54241       66.06706
C         52.13836       91.13940       66.39091
C         51.86840       90.98624       67.88855
O         52.74986       91.22321       68.69941
C         53.31129       90.24715       65.90850
C         54.66515       90.59768       66.47605
O         55.61701       89.86179       66.27594
O         54.81319       91.70572       67.22452
H         53.11818       93.05361       66.54096
H         51.24053       90.76950       65.85068
H         53.37291       90.27968       64.79935
H         53.07209       89.20282       66.20768
N         50.64458       90.58241       68.32471
C         50.30635       90.36777       69.72447
C         51.11836       89.25056       70.33889
O         51.54472       89.37577       71.47774
H         49.90264       90.40678       67.63140
H         49.24086       90.05836       69.77132
H         50.40538       91.30529       70.31465
N         51.37826       88.12567       69.61869
C         52.11204       86.97331       70.12095
C         53.47148       86.91189       69.45332
O         53.55022       87.01545       68.23615
C         51.29114       85.70447       69.82937
C         51.99495       84.45776       70.30476
N         52.34701       83.48858       69.42773
O         52.25255       84.32362       71.49178
H         51.05793       88.08930       68.63852
H         52.26120       87.04096       71.22190
H         51.10124       85.63788       68.73522
H         50.30672       85.77615       70.34105
H         52.14199       83.58416       68.42224
H         52.83177       82.63952       69.75327
N         54.59504       86.71106       70.20308
C         55.92885       86.67946       69.62702
C         56.38489       88.07181       69.24335
O         55.66077       89.02091       69.50704
H         54.50351       86.54236       71.21622
H         55.93278       85.98905       68.75624
H         56.64332       86.29221       70.38266
N         57.56885       88.31188       68.61093
C         58.49762       87.27100       68.17362
C         59.19712       86.57561       69.34047
O         59.71364       85.48517       69.14014
C         59.55177       87.84868       67.19329
C         58.89315       88.42989       65.92928
O         60.30419       88.84402       67.84024
H         57.78082       89.29252       68.37988
H         57.91183       86.51158       67.61037
H         60.22252       87.01581       66.87942
H         61.09199       89.03097       67.26569
H         58.22703       89.28235       66.16856
H         59.67168       88.80039       65.22994
H         58.29758       87.64995       65.40975
N         59.29690       87.16644       70.56615
C         59.94528       86.56797       71.73299
C         58.93547       86.53495       72.87814
O         58.36051       87.57885       73.15854
C         61.20176       87.40531       72.12784
C         62.30916       87.37310       71.03675
C         61.79049       86.97434       73.48701
C         62.91009       85.98675       70.74906
H         58.91056       88.11515       70.68625
H         60.30149       85.54982       71.51812
H         60.88519       88.46524       72.24997
H         63.13936       88.03749       71.36298
H         61.90846       87.78455       70.08690
H         62.66391       87.60878       73.74660
H         61.04138       87.10785       74.29338
H         62.11173       85.91470       73.48774
H         62.15429       85.28917       70.33802
H         63.71629       86.08517       69.99267
H         63.36121       85.53845       71.65767
N         58.69393       85.43524       73.65729
C         59.37593       84.14481       73.52876
C         59.30115       83.31826       74.81412
O         58.53609       83.63474       75.71221
C         58.80269       83.32692       72.34130
C         57.32700       83.05650       72.49114
O         56.87760       81.79087       72.58646
O         56.52819       83.98027       72.50619
H         58.04548       85.57297       74.44657
H         60.45793       84.33613       73.38963
H         59.34446       82.35888       72.26925
H         58.94592       83.85186       71.37751
N         60.10820       82.22363       74.95152
C         60.04540       81.29921       76.07977
C         61.37036       81.26455       76.83270
O         62.38921       81.08772       76.18167
C         59.68219       79.90507       75.52754
C         59.41940       78.90347       76.62912
C         60.47080       78.35404       77.38736
C         58.09883       78.51865       76.91505
C         60.19951       77.45093       78.41930
C         57.83253       77.61988       77.95025
C         58.88127       77.08797       78.70353
H         60.77788       82.00939       74.19689
H         59.22260       81.57873       76.75901
H         60.45232       79.51485       74.82595
H         58.74856       80.04287       74.93843
H         61.49985       78.61961       77.18506
H         57.27205       78.92839       76.34837
H         61.01175       77.03528       79.00161
H         56.81087       77.34032       78.17026
H         58.67192       76.39393       79.50659
N         61.45076       81.33265       78.20684
C         60.32862       81.40008       79.13899
C         59.58117       82.70813       79.06351
O         58.37002       82.71051       78.90098
C         60.97775       81.23125       80.52308
C         62.19544       80.39123       80.19390
C         62.68476       81.08595       78.92870
H         59.65894       80.53130       78.95770
H         61.37202       82.20349       80.89580
H         60.29756       80.81812       81.29850
H         62.94822       80.32799       81.00809
H         61.85789       79.36429       79.93030
H         63.14409       82.06512       79.19416
H         63.41917       80.45806       78.38090
N         60.27634       83.87275       79.14775
C         59.65754       85.18121       79.03716
C         59.09927       85.56936       80.40187
O         59.90293       85.70295       81.31469
C         60.72285       86.19837       78.56943
C         61.27214       85.81921       77.17868
C         62.43019       86.69162       76.79673
O         63.52072       86.19226       76.56643
O         62.27497       88.02492       76.69890
H         61.30244       83.82007       79.23777
H         58.90553       85.15552       78.23045
H         61.55915       86.20944       79.30435
H         60.28538       87.21974       78.52119
H         60.46367       85.91112       76.42185
H         61.62276       84.76426       77.17053
N         57.77435       85.75471       80.68523
C         56.65484       85.59476       79.77821
H         56.08924       86.54780       79.72502
H         56.92890       85.30283       78.75414
H         55.98118       84.80710       80.17738
H         57.52747       86.01423       81.65353
Ca        55.76556       91.86276       69.24996
O         57.65458       91.46692       71.34747
H         58.26747       91.27768       70.59338
H         57.23170       90.59390       71.54461
O         56.77278       94.67489       68.60039
H         56.56922       94.32875       67.69516
H         57.67796       94.32782       68.80238
O         58.19543       91.83101       67.87598
H         57.52855       91.41811       67.27314
H         58.97285       92.01251       67.29494
O         54.44666       90.83972       72.01931
H         54.81279       89.96151       72.29305
H         53.81422       90.62590       71.28912
O         55.36412       94.33609       71.49628
H         55.25688       95.30778       71.33821
H         56.34007       94.20819       71.60433

Ca 1.0



