%chk=apoCaM-CA-Ng.loop1.water3.frame192.chk
%nprocshared=20
%mem=10GB
%nosave
#b3lyp/svp scf=(tight,noincore,xqc) Test 
#IOP(5/87=12) Density=Current Pop=(MK,readradii) iop(6/33=2) iop(6/42=6)

apoCaM-CA-Ng.loop1.water3.frame192 

   0  1 
C        112.60115       32.05022       17.78788
C        112.97073       32.67527       16.47446
O        112.72621       32.06950       15.44097
H        111.50256       31.89734       17.83331
H        113.11305       31.07106       17.88806
H        112.90212       32.69333       18.64219
N        113.54928       33.90784       16.43728
C        113.89190       34.58423       15.19070
C        115.08976       33.97145       14.45421
O        115.39894       34.45816       13.37753
C        114.05401       36.10627       15.41264
C        115.19725       36.54367       16.27879
O        116.03706       37.29589       15.81652
O        115.26556       36.19362       17.57633
H        113.67067       34.40559       17.32949
H        113.01048       34.50088       14.52092
H        113.11131       36.50836       15.84297
H        114.19804       36.57945       14.42831
N        115.78071       32.89211       14.93066
C        116.88729       32.24582       14.22200
C        116.46899       30.85234       13.77662
O        115.99106       30.10858       14.62310
C        118.11515       32.05718       15.14987
C        119.05315       33.25630       15.31261
C        118.46649       34.50129       15.97948
C        119.57771       35.56141       16.10836
N        119.10488       36.77383       16.76852
H        115.49088       32.46292       15.81994
H        117.19256       32.82906       13.34385
H        118.77384       31.28855       14.68240
H        117.79853       31.65294       16.13625
H        119.45319       33.51748       14.31562
H        119.91390       32.90788       15.92529
H        118.08646       34.23300       16.98890
H        117.63191       34.90525       15.37016
H        119.96243       35.82602       15.09863
H        120.42153       35.14005       16.69835
H        118.72253       36.54723       17.71507
H        119.90511       37.43854       16.87228
H        118.37957       37.23437       16.18091
N        116.68684       30.34397       12.52055
C        117.27897       31.00751       11.35412
C        118.65555       31.59752       11.62668
O        118.80411       32.80790       11.57506
C        116.31529       32.01715       10.69132
C        115.03900       31.39226       10.19928
O        114.72051       30.25550       10.51088
O        114.24643       32.08957        9.37048
H        116.43275       29.35304       12.37917
H        117.44033       30.23790       10.58286
H        116.83483       32.42074        9.79369
H        116.06360       32.86442       11.35595
N        119.74589       30.83044       11.88625
C        119.74964       29.38339       11.74924
C        121.06166       28.76620       12.19139
O        121.87506       29.44910       12.79755
H        120.62412       31.32425       12.10694
H        119.56479       29.14988       10.68161
H        118.94708       28.92990       12.36699
N        121.34239       27.44807       11.99216
C        120.51566       26.53400       11.20523
C        120.65766       26.80010        9.70284
O        121.46980       27.62607        9.30611
C        120.88182       25.05919       11.52143
C        122.27623       24.64654       11.10491
O        123.36547       25.20666       11.66439
O        122.42420       23.76363       10.27562
H        122.19652       27.09279       12.44150
H        119.45512       26.66386       11.51374
H        120.15405       24.39718       11.00528
H        120.76298       24.87894       12.61137
N        119.91926       26.08332        8.80462
C        120.09450       26.15882        7.35888
C        119.67655       27.46243        6.70337
O        119.82566       27.55051        5.49259
H        119.25034       25.38395        9.15885
H        119.48295       25.35823        6.88823
H        121.15996       25.95089        7.11796
N        119.14453       28.50506        7.40207
C        118.74476       29.76966        6.78854
C        119.64655       30.86330        7.34210
O        119.67388       31.08358        8.54490
C        117.23239       30.00069        7.00031
C        116.75741       31.35128        6.46644
O        116.90126       29.91693        8.35334
H        119.02614       28.41623        8.41966
H        118.89176       29.73025        5.68716
H        116.67656       29.21264        6.43741
H        116.75402       28.95742        8.56450
H        115.66156       31.44454        6.62260
H        117.25397       32.18279        7.01039
H        116.97410       31.43929        5.38190
N        120.49936       31.51028        6.49692
C        121.63009       32.31535        6.95929
C        121.26994       33.72813        7.41460
O        122.14534       34.37973        7.96747
C        122.77563       32.31617        5.89190
C        122.36021       33.03529        4.57526
C        123.24747       30.86607        5.63889
C        123.46400       33.07302        3.51568
H        120.45714       31.24252        5.50510
H        122.05064       31.80220        7.85433
H        123.64302       32.86414        6.32276
H        122.09158       34.08375        4.81467
H        121.47495       32.55681        4.11022
H        123.53658       30.38624        6.59794
H        122.45557       30.24974        5.16451
H        124.14288       30.84048        4.98714
H        124.37814       33.55539        3.91947
H        123.70886       32.05190        3.15692
H        123.11099       33.65212        2.63617
N        120.03877       34.28201        7.20997
C        119.67855       35.63245        7.65382
C        118.45799       35.56514        8.56674
O        117.42431       35.04628        8.17018
C        119.49545       36.60100        6.45196
C        118.55837       36.09914        5.34939
O        120.74259       36.93053        5.88839
H        119.32577       33.73644        6.70532
H        120.50372       36.08525        8.24692
H        119.08029       37.54969        6.85865
H        121.21920       36.08946        5.67189
H        118.97256       35.18423        4.87486
H        117.54793       35.88500        5.74796
H        118.46924       36.87833        4.56241
N        118.54245       36.05289        9.83910
C        117.49307       35.91956       10.84849
C        116.21194       36.63196       10.47209
O        116.27798       37.80197       10.12848
C        117.99022       36.43330       12.24193
C        118.12551       37.95379       12.38466
O        119.23586       35.86831       12.54187
H        119.43108       36.48973       10.12634
H        117.28619       34.83944       10.98290
H        117.25378       36.13595       13.02228
H        119.07050       34.91357       12.71671
H        117.13966       38.45159       12.30291
H        118.50781       38.19342       13.40017
H        118.82176       38.36922       11.62851
N        114.99408       36.02098       10.58895
C        113.75433       36.79286       10.51593
C        112.55008       35.85514       10.43370
O        111.82380       35.90790        9.45285
C        113.65760       37.68720       11.79278
C        112.77025       38.93604       11.72866
C        113.36636       40.09900       10.90701
C        114.77460       40.57913       11.34523
N        114.85246       40.96317       12.75679
H        114.95373       35.01631       10.81594
H        113.79856       37.41763        9.59664
H        114.65737       38.01110       12.13518
H        113.26715       37.06978       12.61282
H        112.64079       39.30780       12.76868
H        111.75925       38.66797       11.35521
H        112.66795       40.95928       10.99067
H        113.41862       39.80537        9.83813
H        115.06174       41.44786       10.71418
H        115.52733       39.79951       11.15173
H        114.17471       41.73010       12.96492
H        114.67283       40.14172       13.37732
H        115.82202       41.30153       12.95899
N        112.28141       34.97919       11.45069
C        111.16974       34.03483       11.47459
C        110.14021       34.50620       12.47414
O        110.46000       34.65648       13.64552
C        111.70648       32.63650       11.84810
C        110.64777       31.53043       12.03991
C        109.67529       31.31545       10.90095
O        110.08048       30.99181        9.65397
O        108.47784       31.38994       11.12642
H        112.89277       34.98732       12.27760
H        110.69140       33.97144       10.47359
H        112.27669       32.70102       12.80080
H        112.43699       32.33590       11.08874
H        110.06388       31.76454       12.95767
H        111.18525       30.57616       12.23054
N        108.86614       34.75760       12.06148
C        107.81383       35.21872       12.94086
H        106.98475       34.48077       12.93632
H        108.16321       35.35290       13.98555
H        107.43148       36.19212       12.56895
H        108.61875       34.61551       11.07036
Ca       112.19282       31.28240        8.96001
O        110.93139       33.62128        7.65660
H        111.84526       33.75249        8.01417
H        111.05575       33.59439        6.67544
O        112.92417       31.05676        5.84055
H        113.47035       30.36875        5.38352
H        113.02008       31.86434        5.27614
O        113.94136       28.71693        7.58841
H        114.36616       28.61866        8.47611
H        114.32038       27.97706        7.05104

Ca 1.0



