%chk=apoCaM-CA-Ng.loop3.water7.frame1156.chk
%nprocshared=20
%mem=10GB
%nosave
#b3lyp/svp scf=(tight,noincore,xqc) Test 
#IOP(5/87=12) Density=Current Pop=(MK,readradii) iop(6/33=2) iop(6/42=6)

apoCaM-CA-Ng.loop3.water7.frame1156 

   0  1 
C         73.54653       52.41786       74.35764
C         72.72840       51.23422       73.94497
O         72.95434       50.71275       72.86307
H         74.30017       52.66402       73.57775
H         72.88204       53.29474       74.50102
H         74.07513       52.19193       75.30641
N         71.75121       50.75217       74.76740
C         70.91381       49.61056       74.41411
C         69.45053       50.01146       74.33601
O         68.59041       49.27087       74.79335
C         71.17697       48.42495       75.37249
C         70.80753       48.67100       76.81826
O         71.02231       47.69934       77.72413
O         70.30728       49.72386       77.18304
H         71.59753       51.22173       75.67140
H         71.17941       49.25749       73.39441
H         72.25912       48.17533       75.32577
H         70.60963       47.53717       75.01718
N         69.09900       51.16129       73.69262
C         67.72744       51.55501       73.39255
C         67.14576       50.49881       72.46858
O         66.09152       49.93954       72.73522
C         66.91533       51.83135       74.68681
C         65.56405       52.52153       74.41723
C         64.83333       52.84512       75.73057
C         63.51068       53.58181       75.46745
N         62.82561       53.89855       76.72136
H         69.84752       51.76953       73.32700
H         67.78175       52.51039       72.82373
H         67.51573       52.51847       75.32266
H         66.75159       50.89160       75.25623
H         64.91322       51.87569       73.79212
H         65.75164       53.47078       73.86918
H         65.48205       53.49012       76.36315
H         64.62504       51.90107       76.28041
H         62.84797       52.94695       74.83842
H         63.71585       54.52733       74.91729
H         61.93305       54.40008       76.50775
H         62.60243       53.01990       77.24289
H         63.42536       54.51778       77.31391
N         67.87781       50.12813       71.37824
C         67.51635       49.04790       70.46989
C         68.51810       47.90593       70.59365
O         69.48627       48.02886       71.33235
C         67.41216       49.57006       69.01853
C         68.70006       50.13128       68.46870
O         69.24447       51.24390       68.99675
O         69.23395       49.60344       67.50649
H         68.78304       50.59576       71.22992
H         66.52360       48.63463       70.75098
H         66.63516       50.36205       68.96538
H         67.08016       48.73433       68.36657
N         68.31678       46.73408       69.92384
C         69.20725       45.58692       70.03536
C         69.27253       45.11856       71.47700
O         68.21451       44.86390       72.03465
H         67.48219       46.63656       69.32662
H         70.19661       45.85936       69.62254
H         68.80430       44.75830       69.41340
N         70.43270       45.00939       72.19344
C         71.78156       45.16003       71.65143
C         72.80397       45.22609       72.78743
O         72.84266       44.30102       73.58655
C         72.12157       43.93448       70.76090
C         73.55803       43.93218       70.28197
N         74.02699       44.90152       69.46440
O         74.30825       43.03807       70.64599
H         70.33886       44.77302       73.19425
H         71.83469       46.09009       71.05995
H         71.44833       43.87763       69.88189
H         71.95772       43.01299       71.36445
H         73.41113       45.65790       69.13540
H         75.01245       44.89416       69.16001
N         73.72152       46.23218       72.90787
C         73.79838       47.38085       72.01313
C         75.06809       48.18616       72.17695
O         75.93506       47.81890       72.96129
H         74.41165       46.14241       73.66951
H         72.91002       48.02477       72.18051
H         73.81169       47.04570       70.95988
N         75.26319       49.29789       71.41243
C         76.49684       50.07655       71.46616
C         76.23346       51.55071       71.16588
O         75.14282       51.88814       70.72645
C         77.49249       49.47634       70.44563
C         78.91724       49.91138       70.66300
C         79.57548       50.73801       69.73868
C         79.61227       49.45477       71.79517
C         80.90712       51.11086       69.95305
C         80.94528       49.81598       71.99977
C         81.59731       50.64879       71.07995
O         82.88409       51.00538       71.26614
H         74.52525       49.55963       70.74182
H         76.89558       50.00926       72.50263
H         77.13814       49.73005       69.42182
H         77.49374       48.36569       70.51550
H         79.05856       51.09891       68.85869
H         79.12536       48.80194       72.50964
H         81.40498       51.75550       69.24000
H         81.47014       49.44392       72.87082
H         83.39730       50.69759       72.02718
N         77.18040       52.50047       71.40249
C         76.95833       53.91637       71.10613
C         76.84184       54.13444       69.60631
O         77.67818       53.62757       68.87159
C         78.04841       54.83380       71.73964
C         79.47365       54.60037       71.17105
C         77.61894       56.31175       71.59194
C         80.55368       55.35993       71.94495
H         78.06183       52.20658       71.84744
H         76.00831       54.21845       71.60337
H         78.06162       54.59679       72.82696
H         79.52065       54.89936       70.10225
H         79.73423       53.52593       71.24000
H         77.60936       56.61917       70.52431
H         76.59902       56.46102       72.00749
H         78.28971       56.99319       72.14938
H         81.55103       55.11766       71.52283
H         80.41746       56.45724       71.87164
H         80.53899       55.05856       73.01423
N         75.83267       54.89508       69.08859
C         75.68403       55.14584       67.65314
C         74.42631       55.94555       67.32320
O         73.74568       56.43358       68.21433
C         76.90708       55.91071       67.08755
O         77.01149       57.17063       67.69773
H         75.15245       55.29806       69.74969
H         75.59932       54.16109       67.14898
H         76.79020       56.02409       65.98553
H         77.85209       55.35517       67.24228
H         77.47622       57.76432       67.05150
N         74.08717       56.13227       66.01486
C         72.98896       56.95898       65.53460
C         73.22410       58.41389       65.89590
O         72.34209       59.05659       66.45023
C         71.62608       56.42570       66.00451
H         74.66645       55.68060       65.29114
H         72.99468       56.90618       64.42322
H         71.52640       56.48214       67.10707
H         70.80566       57.02457       65.55474
H         71.50078       55.37008       65.68523
N         74.42655       58.99595       65.59806
C         74.75237       60.40234       65.82339
C         74.68163       60.84038       67.28466
O         74.84400       62.02889       67.52935
C         73.84824       61.28342       64.94642
H         75.15426       58.41491       65.15445
H         75.79501       60.58159       65.47812
H         74.15248       62.34905       65.02471
H         73.94734       60.97894       63.88246
H         72.78257       61.20406       65.24267
N         74.43469       59.96973       68.31003
C         74.21444       60.42527       69.67965
C         75.45181       61.08271       70.28113
O         75.31713       61.78661       71.27253
C         73.75093       59.23491       70.55851
C         73.18436       59.59332       71.94569
C         71.85147       60.29315       71.86778
O         70.75448       59.69544       72.37208
O         71.75074       61.40048       71.36581
H         74.33633       58.96711       68.11198
H         73.39983       61.17460       69.61140
H         74.61897       58.54973       70.68662
H         72.95591       58.66744       70.02576
H         73.90136       60.19339       72.54079
H         73.02536       58.63736       72.48981
N         76.69533       60.88152       69.75841
C         77.87522       61.49212       70.33133
H         78.77870       61.16890       69.77177
H         77.79565       62.59823       70.27287
H         77.98731       61.18295       71.39272
H         76.82469       60.26131       68.94604
Ca        71.84409       51.20082       67.68856
O         73.56917       52.87530       66.12227
H         74.39313       52.52850       65.69752
H         73.16418       53.46454       65.43870
O         72.52174       53.11753       70.34848
H         72.91872       52.48890       69.69619
H         72.93215       53.98983       70.12420
O         72.04167       49.44378       69.95952
H         71.56629       49.96406       70.65455
H         71.56684       48.57709       69.92014
O         74.57667       50.17112       68.16733
H         75.14443       50.76052       67.61086
H         74.84269       49.25168       67.91493
O         70.56280       53.95263       68.15982
H         69.84704       54.32968       67.58957
H         70.87359       54.71604       68.70795
O         72.43385       49.44550       65.41032
H         72.61792       48.54887       65.78775
H         71.61807       49.32395       64.86262
O         70.28670       52.16050       65.44005
H         69.41589       51.88659       65.05798
H         70.76412       52.60002       64.69265

Ca 1.0



