%chk=apoCaM-CA-Ng.loop2.water4.frame367.chk
%nprocshared=20
%mem=10GB
%nosave
#b3lyp/svp scf=(tight,noincore,xqc) Test 
#IOP(5/87=12) Density=Current Pop=(MK,readradii) iop(6/33=2) iop(6/42=6)

apoCaM-CA-Ng.loop2.water4.frame367 

   -2  1 
C         38.92036       81.43929       26.85003
C         38.04892       80.33023       26.32062
O         36.89832       80.23099       26.72090
H         39.91989       81.43693       26.36305
H         38.45031       82.42567       26.64862
H         39.06493       81.31705       27.94255
N         38.53670       79.47311       25.38275
C         37.74966       78.41236       24.75420
C         37.36803       77.28330       25.71004
O         38.08268       77.04024       26.66726
C         38.50856       77.83183       23.53589
C         39.79783       77.11655       23.88299
O         40.82052       77.76748       24.47117
O         39.93339       75.93841       23.59657
H         39.49603       79.64327       25.05379
H         36.82032       78.88172       24.36037
H         38.74451       78.66104       22.83401
H         37.83676       77.12262       23.00587
N         36.28076       76.49732       25.44967
C         35.91758       75.31136       26.23115
C         35.66703       75.60559       27.69748
O         34.98923       76.57009       28.02526
C         34.67558       74.62785       25.65128
H         35.70258       76.73327       24.62778
H         36.74302       74.57014       26.15383
H         33.80199       75.31297       25.65669
H         34.87804       74.29589       24.61157
H         34.42529       73.72619       26.25496
N         36.17801       74.75724       28.63741
C         35.99613       74.92819       30.07778
C         34.54410       74.62479       30.46346
O         33.77784       74.22357       29.59613
C         36.99187       74.02107       30.84566
C         38.40198       74.04822       30.26733
O         38.83255       73.02265       29.76349
O         39.19089       75.14775       30.21808
H         36.72136       73.94655       28.30518
H         36.23950       75.97501       30.33721
H         36.62716       72.97414       30.74862
H         37.00844       74.27614       31.92624
N         34.08932       74.79507       31.74067
C         32.69143       74.57866       32.11250
C         32.02166       75.82057       32.66276
O         30.81592       75.77074       32.86407
H         34.75213       75.09744       32.46897
H         32.61860       73.77551       32.87629
H         32.09271       74.25276       31.23464
N         32.71840       76.95636       32.95993
C         32.09350       78.15565       33.50340
C         32.40182       79.34342       32.62397
O         33.25397       79.24438       31.74983
C         32.63493       78.40140       34.92524
C         32.27284       77.25913       35.84163
N         33.23130       76.47278       36.38552
O         31.09686       77.03719       36.08879
H         33.73898       76.98405       32.83279
H         30.98789       78.04498       33.54145
H         32.22307       79.34040       35.35379
H         33.74166       78.51199       34.87001
H         34.22844       76.63137       36.18004
H         32.97402       75.69003       37.00511
N         31.74593       80.52090       32.81720
C         32.06621       81.71808       32.06440
C         32.56986       82.77037       33.00805
O         33.40524       82.46561       33.84884
H         31.01050       80.57732       33.53955
H         31.17129       82.06566       31.50181
H         32.86896       81.52912       31.32399
N         32.11424       84.04702       32.91594
C         32.53686       85.10194       33.83267
C         34.04882       85.33437       33.81287
O         34.57706       85.77101       34.82573
C         31.74527       86.41376       33.59961
C         31.98247       87.04519       32.21608
O         30.37023       86.19997       33.81776
H         31.43213       84.25556       32.17361
H         32.27922       84.75153       34.85814
H         32.07771       87.15405       34.35861
H         30.00186       85.68648       33.05260
H         33.04934       87.30402       32.08294
H         31.68425       86.36274       31.39381
H         31.38497       87.97601       32.12579
N         34.80801       85.04130       32.71534
C         36.27099       85.12060       32.68511
C         36.82179       83.72680       32.41240
O         36.17440       82.93289       31.74201
C         36.74603       86.19807       31.66763
C         36.33291       87.60275       32.18648
C         38.27378       86.13681       31.44807
C         36.47391       88.70586       31.13770
H         34.33380       84.71889       31.85803
H         36.66670       85.42386       33.68056
H         36.24614       86.00197       30.69388
H         36.92218       87.86559       33.09478
H         35.26613       87.59345       32.47828
H         38.62391       86.92525       30.75393
H         38.81649       86.24769       32.41157
H         38.55835       85.16802       30.98657
H         37.52570       88.85424       30.82517
H         35.85569       88.45465       30.24977
H         36.10518       89.66476       31.56012
N         37.98659       83.33875       33.00633
C         38.44888       81.95287       33.03446
C         39.17488       81.70820       34.36246
O         40.19480       81.03700       34.39046
C         39.34432       81.71430       31.79611
C         39.69443       80.28068       31.48997
O         39.12571       79.25686       32.15457
O         40.40576       80.04146       30.52732
H         38.49135       84.03753       33.57363
H         37.55572       81.28793       33.01633
H         40.27005       82.31882       31.90992
H         38.80583       82.08253       30.89574
N         38.73517       82.34136       35.49291
C         39.42326       82.34422       36.78235
C         40.89257       82.75337       36.64612
O         41.15523       83.81883       36.10541
C         38.70991       83.34926       37.73121
C         39.49328       83.62481       38.99549
C         40.45636       84.65408       39.00481
C         39.29810       82.86071       40.15397
C         41.22007       84.90180       40.14426
C         40.06112       83.11868       41.29946
C         41.02351       84.13431       41.29238
H         37.88221       82.91708       35.41946
H         39.34368       81.33988       37.23714
H         37.68580       82.98663       37.96869
H         38.57518       84.32351       37.20868
H         40.62616       85.26064       38.12402
H         38.56299       82.06667       40.16755
H         41.96527       85.68753       40.13267
H         39.91113       82.52790       42.19249
H         41.61793       84.32841       42.17519
N         41.90370       82.00308       37.19599
C         43.28917       82.45248       37.29103
C         44.03450       82.43565       35.96890
O         45.17014       82.88984       35.93980
C         43.90601       81.48035       38.31016
C         43.13145       80.20700       38.03994
C         41.71389       80.73851       37.87876
H         43.33971       83.48369       37.70644
H         45.01291       81.38546       38.28061
H         43.61230       81.80752       39.33407
H         43.46668       79.80912       37.05454
H         43.23254       79.40335       38.80015
H         41.12868       80.00115       37.28897
H         41.22649       80.93673       38.86015
N         43.48746       81.90019       34.84614
C         44.18746       81.84966       33.56843
C         44.21418       83.20118       32.87751
O         45.02285       83.37312       31.97519
C         43.48947       80.83938       32.64096
C         43.61687       79.40948       33.18808
C         42.78371       78.45095       32.39393
O         42.96933       78.31070       31.19592
O         41.82133       77.73772       33.00874
H         42.56560       81.45462       34.91620
H         45.23340       81.50518       33.73940
H         43.93940       80.86598       31.62437
H         42.41819       81.12821       32.55533
H         43.27981       79.36120       34.24529
H         44.68401       79.09967       33.15229
N         43.31175       84.17774       33.17512
C         43.27197       85.42839       32.44858
H         42.43741       86.05804       32.82344
H         44.22747       85.97842       32.57739
H         43.10117       85.22995       31.36785
H         42.60164       84.02339       33.90387
Ca        39.18198       77.21406       31.15821
O         39.12953       76.16084       33.57535
H         38.97349       76.97039       34.12322
H         38.60106       75.44391       34.00202
O         37.28537       78.01647       29.51819
H         37.07186       78.78122       30.10765
H         37.43336       78.41088       28.62807
O         41.52845       74.98159       31.85171
H         42.32537       74.40761       31.73346
H         40.80520       74.35195       32.09825
O         40.65139       77.41417       28.42974
H         41.05574       77.56147       27.53865
H         39.91265       76.77854       28.26258

Ca 1.0



