%chk=apoCaM-CA-Ng.loop1.water3.frame1478.chk
%nprocshared=20
%mem=10GB
%nosave
#b3lyp/svp scf=(tight,noincore,xqc) Test 
#IOP(5/87=12) Density=Current Pop=(MK,readradii) iop(6/33=2) iop(6/42=6)

apoCaM-CA-Ng.loop1.water3.frame1478 

   0  1 
C         48.89905       57.46227       60.90964
C         47.86588       58.09708       61.79349
O         48.09738       59.19092       62.28772
H         49.83864       57.30560       61.47721
H         48.55142       56.47946       60.52480
H         49.09489       58.12382       60.04028
N         46.68203       57.46382       62.01364
C         45.60118       58.00991       62.82594
C         45.25949       57.03733       63.94550
O         44.09183       56.75135       64.17501
C         44.41294       58.37108       61.89566
C         43.87308       57.24614       61.03424
O         43.02902       57.49887       60.19004
O         44.30476       55.97593       61.16048
H         46.54312       56.54666       61.57037
H         45.92461       58.95220       63.30783
H         44.78085       59.15922       61.20250
H         43.57581       58.80342       62.48445
N         46.26698       56.43011       64.63961
C         46.03421       55.33580       65.57292
C         45.49319       55.79688       66.92177
O         44.44364       55.28755       67.29009
C         47.28738       54.45241       65.76525
C         47.80272       53.82003       64.45926
C         49.06959       53.00810       64.75868
C         49.58512       52.24736       63.53331
N         50.79768       51.49997       63.87154
H         47.23903       56.65148       64.37844
H         45.28731       54.64522       65.11322
H         47.01830       53.62253       66.45782
H         48.11395       55.01164       66.22730
H         48.05177       54.60032       63.70785
H         47.01324       53.16139       64.03434
H         48.84754       52.26894       65.55852
H         49.86148       53.70062       65.12199
H         49.80688       52.95480       62.70335
H         48.79960       51.53733       63.19210
H         51.08436       50.91511       63.05423
H         51.57274       52.16308       64.10423
H         50.62069       50.87102       64.68893
N         46.10487       56.68580       67.76963
C         47.28400       57.51609       67.49239
C         46.93325       58.75789       66.71310
O         45.76390       59.04779       66.51234
C         48.06079       57.86533       68.78961
C         47.22222       58.17049       70.01089
O         46.46560       59.27631       70.20076
O         47.23467       57.34055       70.90427
H         45.62116       56.83623       68.66706
H         47.99551       56.97533       66.85012
H         48.82371       58.65433       68.62370
H         48.62579       56.94196       69.04730
N         47.93530       59.50671       66.16675
C         47.67986       60.68153       65.35417
C         47.33560       61.88910       66.18425
O         47.47039       61.84753       67.39185
H         48.91191       59.18684       66.26519
H         46.88148       60.45791       64.62367
H         48.59863       60.94653       64.78792
N         46.89078       63.02306       65.57872
C         46.66523       64.29629       66.27337
C         47.27635       65.43058       65.45856
O         47.64019       65.18753       64.31582
C         45.14621       64.50123       66.46525
C         44.64451       63.43282       67.38642
O         43.84150       62.60298       66.99516
O         45.20336       63.32202       68.60829
H         46.68974       62.97039       64.56865
H         47.16453       64.27766       67.26621
H         44.63297       64.44439       65.47890
H         44.91102       65.48026       66.91717
N         47.44391       66.70802       65.91311
C         47.21551       67.21679       67.25732
C         48.19417       66.63530       68.24691
O         49.37639       66.56349       67.94079
H         47.81782       67.39310       65.23785
H         46.16424       67.10910       67.58449
H         47.42292       68.30846       67.23308
N         47.78357       66.27080       69.49266
C         48.68858       65.69785       70.48230
C         48.96339       64.25034       70.14202
O         48.06362       63.54775       69.70808
C         48.13243       65.85080       71.92311
C         48.17334       67.31789       72.37661
O         48.87047       65.08333       72.84060
H         46.79684       66.42407       69.75244
H         49.65502       66.25188       70.48118
H         47.08458       65.48050       71.94783
H         49.83398       65.28492       72.71860
H         47.59556       67.97115       71.69193
H         47.76107       67.41103       73.40329
H         49.22808       67.67517       72.40039
N         50.21163       63.74582       70.35009
C         50.64829       62.38802       70.05623
C         49.82982       61.39220       70.85595
O         48.75039       61.00737       70.43164
C         50.65506       62.08372       68.53484
C         51.30886       63.24129       67.73938
C         51.35881       60.73904       68.26716
C         51.12335       63.11353       66.22797
H         50.92477       64.37235       70.75294
H         51.70576       62.32978       70.39932
H         49.61312       62.01429       68.20182
H         52.38605       63.32864       67.99586
H         50.81304       64.19681       68.00916
H         50.86213       59.91566       68.81987
H         51.33328       60.47184       67.19274
H         52.41841       60.78990       68.59882
H         51.54327       64.01375       65.73237
H         51.64055       62.22215       65.82444
H         50.04072       63.05772       65.98230
N         50.29765       60.95350       72.05044
C         49.57935       60.04810       72.93545
C         49.37348       60.67612       74.31445
O         48.93732       59.96591       75.20901
C         50.34199       58.70079       72.99920
C         51.77608       58.82546       73.51219
O         50.39956       58.13770       71.71558
H         51.21935       61.29256       72.36175
H         48.56365       59.80867       72.54486
H         49.80181       58.00510       73.68513
H         49.50552       57.76032       71.53208
H         51.79742       59.27214       74.52633
H         52.23572       57.81557       73.55194
H         52.38810       59.44088       72.82040
N         49.65415       61.99663       74.56050
C         49.49830       62.62854       75.87223
C         48.00342       62.63101       76.20300
O         47.28048       63.41923       75.60998
C         50.10491       64.07350       75.82933
C         50.34563       64.68955       77.20635
O         51.31996       64.10427       75.11646
H         49.99680       62.58015       73.78655
H         50.08733       62.02082       76.59503
H         49.39573       64.72164       75.27539
H         51.90384       63.38512       75.47257
H         50.65445       65.75107       77.07716
H         49.43602       64.65059       77.83560
H         51.17603       64.15450       77.71710
N         47.45503       61.61876       76.94592
C         46.02615       61.26253       76.95644
C         45.52719       60.92679       75.55713
O         46.17891       61.22876       74.57377
C         45.09048       62.37148       77.51422
C         45.21359       62.66720       79.00769
C         44.62474       61.53686       79.87346
C         44.73113       61.82095       81.38031
N         43.98795       63.01602       81.78920
H         48.09423       60.96143       77.41845
H         45.91716       60.33146       77.55294
H         44.02407       62.10137       77.33837
H         45.26214       63.30753       76.94682
H         44.60846       63.58072       79.18755
H         46.27056       62.88026       79.26870
H         45.16613       60.59011       79.67292
H         43.55336       61.38205       79.60917
H         45.80142       61.93126       81.65824
H         44.32046       60.94242       81.92621
H         42.97698       62.91969       81.53879
H         44.07012       63.12438       82.82557
H         44.38602       63.87565       81.35033
N         44.31947       60.32223       75.41229
C         43.61117       60.20260       74.14297
C         44.39681       59.58646       72.99745
O         44.45024       60.23692       71.96277
C         42.26206       59.48137       74.33439
C         41.26059       60.38971       75.06228
C         39.94437       59.69940       75.25000
O         38.93942       60.13703       74.71280
O         39.86240       58.60206       76.02572
H         43.84601       59.99448       76.26832
H         43.37147       61.23331       73.79639
H         42.40700       58.52610       74.88133
H         41.82406       59.24910       73.33839
H         41.11027       61.30286       74.44292
H         41.64483       60.70288       76.05498
N         44.99781       58.36914       73.01215
C         45.14266       57.50579       74.15473
H         45.75081       58.01428       74.93036
H         44.15997       57.20060       74.55081
H         45.69129       56.58935       73.84140
H         45.41123       58.04488       72.13504
Ca        45.84319       61.29578       69.39354
O         44.33423       63.47386       71.67520
H         44.59851       64.09948       72.39617
H         43.58527       62.95397       72.05959
O         47.24533       62.38825       72.10551
H         46.34114       62.32729       72.48650
H         47.75694       62.92165       72.75813
O         43.44799       60.03369       68.75824
H         43.31719       61.00396       68.90589
H         44.07473       59.98662       67.99491

Ca 1.0



