%chk=apoCaM-CA-Ng.loop4.water6.frame612.chk
%nprocshared=20
%mem=10GB
%nosave
#b3lyp/svp scf=(tight,noincore,xqc) Test 
#IOP(5/87=12) Density=Current Pop=(MK,readradii) iop(6/33=2) iop(6/42=6)

apoCaM-CA-Ng.loop4.water6.frame612 

   -3  1 
C         84.26293       35.11765       93.98558
C         85.48130       34.72405       94.76450
O         86.29930       33.98865       94.23118
H         83.60267       35.78721       94.57491
H         84.57088       35.64536       93.05865
H         83.69094       34.20581       93.71284
N         85.67136       35.18046       96.04019
C         86.80903       34.82270       96.88884
C         88.14260       35.33014       96.34435
O         89.16839       34.98110       96.91464
C         86.87898       33.29060       97.08747
C         85.55995       32.69201       97.48369
O         84.94946       33.02292       98.63510
O         85.03002       31.87412       96.74944
H         84.95513       35.79586       96.45457
H         86.65798       35.28284       97.89080
H         87.63870       33.04117       97.85977
H         87.20787       32.80792       96.14376
N         88.22053       36.12770       95.23619
C         89.49210       36.46303       94.60314
C         90.40474       37.25368       95.54555
O         89.88364       37.95193       96.40360
C         89.30085       37.20769       93.24091
C         88.67818       38.61622       93.43380
C         88.47228       36.34444       92.26696
C         88.52736       39.40940       92.13557
H         87.35544       36.45254       94.79267
H         89.95304       35.47601       94.39020
H         90.30701       37.33643       92.78395
H         89.33635       39.21200       94.10063
H         87.67997       38.53815       93.91263
H         88.90772       35.33241       92.19462
H         87.41865       36.23747       92.59345
H         88.47514       36.77813       91.24645
H         87.81039       38.91908       91.44614
H         88.12715       40.41830       92.36970
H         89.51102       39.52255       91.63323
N         91.77078       37.17736       95.51044
C         92.52685       36.34028       94.58784
C         93.09697       35.12359       95.27804
O         93.50846       34.22698       94.56538
C         93.62680       37.13805       93.84694
C         94.74194       37.67683       94.71517
O         95.64652       38.31056       94.19603
O         94.77583       37.46041       96.04448
H         92.29418       37.70580       96.22441
H         91.86935       35.95098       93.79477
H         93.14992       37.98677       93.31207
H         94.09511       36.47552       93.08465
N         93.15171       34.97871       96.63513
C         93.78140       33.81364       97.22655
C         95.26240       33.81330       96.90256
O         95.99380       34.61583       97.46401
H         92.76503       35.69630       97.26347
H         93.27730       32.90385       96.83121
H         93.65373       33.80777       98.33083
N         95.75818       32.95190       95.97136
C         97.16964       32.85273       95.60005
C         97.43398       33.20700       94.13170
O         98.55069       33.00161       93.67596
C         97.69360       31.43514       95.95455
C         97.00014       30.24305       95.33113
O         96.02439       30.35991       94.61125
O         97.45829       29.00830       95.60679
H         95.08653       32.33312       95.49746
H         97.78714       33.55967       96.19652
H         97.61840       31.30928       97.05539
H         98.77005       31.38342       95.68430
N         96.48001       33.77117       93.33451
C         96.66144       34.05923       91.91911
C         96.69198       32.80652       91.05973
O         96.82696       32.94200       89.85299
H         95.58660       34.03644       93.74042
H         97.58195       34.66595       91.77423
H         95.79803       34.66436       91.56293
N         96.55007       31.56019       91.60655
C         96.58791       30.28907       90.89179
C         95.36954       30.04496       90.01499
O         95.31579       28.98787       89.40030
C         97.93145       30.11995       90.13292
C         99.15579       30.23999       91.06867
C         99.27443       29.13098       92.09390
N        100.25645       29.17651       93.02215
O         98.49990       28.18539       92.09124
H         96.42929       31.47839       92.61420
H         96.52318       29.48226       91.64970
H         98.01479       30.89493       89.34373
H         97.96743       29.13479       89.62006
H         99.11459       31.21794       91.59338
H        100.08234       30.23026       90.45573
H        100.91990       29.96416       93.04873
H        100.34618       28.42633       93.72374
N         94.33606       30.93328       89.93067
C         93.15226       30.71310       89.10557
C         91.85087       30.82385       89.91203
O         90.79697       30.76978       89.29533
C         93.16791       31.71650       87.90967
C         93.07516       33.18839       88.34183
C         94.42391       31.51388       87.04609
H         94.38555       31.82087       90.44751
H         93.16269       29.69591       88.65544
H         92.28760       31.50065       87.26445
H         93.05868       33.84819       87.44853
H         92.13546       33.36149       88.89748
H         93.93803       33.48831       88.97211
H         95.34703       31.73928       87.62197
H         94.47653       30.46544       86.68381
H         94.39535       32.18443       86.16106
N         91.83576       31.01789       91.27051
C         90.62201       31.36881       92.01217
C         90.31666       30.39199       93.14107
O         91.15274       30.19887       94.01140
C         90.81896       32.77635       92.60062
C         91.11524       33.77388       91.50701
N         92.30697       34.41347       91.45555
O         90.27727       33.98914       90.64437
H         92.71959       31.01845       91.79797
H         89.74197       31.41414       91.33373
H         91.66324       32.74779       93.32274
H         89.90846       33.09685       93.15312
H         93.04227       34.22205       92.14762
H         92.50760       35.08941       90.70465
N         89.09893       29.77309       93.20212
C         88.68206       28.89506       94.29776
C         87.33405       28.27694       93.97642
O         86.39754       29.01639       93.70649
C         88.53445       29.66950       95.63674
C         88.09885       28.73650       96.75512
C         86.83381       28.87174       97.35373
C         88.94652       27.70329       97.18994
C         86.42144       27.98420       98.35316
C         88.53502       26.82206       98.19611
C         87.27093       26.95577       98.77787
O         86.88366       26.09185       99.73869
H         88.43386       29.94290       92.43193
H         89.43541       28.08808       94.42081
H         87.77785       30.47347       95.49480
H         89.48396       30.15971       95.93390
H         86.15689       29.64993       97.03748
H         89.92581       27.57796       96.74770
H         85.44032       28.09186       98.79516
H         89.19779       26.02994       98.51995
H         86.01438       26.14628      100.16167
N         87.15016       26.92789       94.06436
C         85.85528       26.30012       93.84981
C         85.36431       25.70826       95.16325
O         85.91643       24.69267       95.56536
C         85.96660       25.17580       92.79320
C         86.41390       25.66975       91.41353
C         86.55386       24.50723       90.46884
O         85.87054       24.44642       89.45952
O         87.44008       23.52614       90.73133
H         87.94132       26.33084       94.34935
H         85.13398       27.03953       93.47663
H         84.97814       24.67538       92.68673
H         86.70206       24.42016       93.15235
H         87.39788       26.17988       91.48523
H         85.66397       26.39125       91.02244
N         84.36438       26.23974       95.93437
C         83.69925       27.53551       95.76669
C         82.94509       27.65543       94.45746
O         82.12136       26.80426       94.15283
C         82.72709       27.77082       96.95130
C         82.12394       29.18837       96.97246
C         81.18270       29.35587       98.13767
O         80.20304       28.63346       98.23010
O         81.38948       30.30283       99.07827
H         84.11802       25.69843       96.77927
H         84.47601       28.32682       95.82392
H         83.28138       27.62984       97.90406
H         81.91469       27.01105       96.91137
H         81.55467       29.37528       96.03764
H         82.94428       29.93396       97.03917
N         83.16938       28.73321       93.65079
C         82.50322       28.95142       92.38485
H         81.91923       29.89472       92.43688
H         83.26698       29.04985       91.58488
H         81.81693       28.12157       92.11906
H         83.83773       29.45726       93.95396
Ca        83.11625       31.76401       99.03965
O         84.65985       33.54288      101.92542
H         84.21274       34.20381      102.51190
H         85.41768       34.03857      101.52498
O         82.61875       31.03831      102.24701
H         82.24650       30.12574      102.15227
H         83.53152       30.89783      102.60390
O         85.25943       30.27741      100.20890
H         86.12454       30.61949       99.87037
H         85.44717       29.98825      101.13593
O         81.36813       33.34950       97.21163
H         81.89656       33.27873       96.37753
H         80.63196       32.69713       97.09792
O         80.42727       32.88128      100.55419
H         80.00444       33.05533       99.67612
H         80.30466       33.72369      101.05953
O         82.65410       35.08291      100.01422
H         83.37615       35.74238      100.16889
H         82.36747       35.24272       99.08029

Ca 1.0



