%chk=apoCaM-CA-Ng.loop2.water3.frame299.chk
%nprocshared=20
%mem=10GB
%nosave
#b3lyp/svp scf=(tight,noincore,xqc) Test 
#IOP(5/87=12) Density=Current Pop=(MK,readradii) iop(6/33=2) iop(6/42=6)

apoCaM-CA-Ng.loop2.water3.frame299 

   -2  1 
C         55.01998       50.80858       23.09605
C         53.91753       51.80457       23.30233
O         53.01943       51.54363       24.08866
H         55.99312       51.26460       23.37399
H         54.85781       49.90479       23.72258
H         55.04963       50.50081       22.02990
N         53.93028       52.98925       22.62886
C         52.88453       53.99620       22.78003
C         51.56627       53.44854       22.25952
O         51.47802       53.12195       21.08343
C         53.27295       55.28381       22.02194
C         52.29678       56.42064       22.19912
O         51.19676       56.29167       22.96741
O         52.51259       57.48487       21.64280
H         54.72660       53.18166       22.00097
H         52.80760       54.25508       23.86040
H         53.37125       55.05797       20.93758
H         54.26143       55.62903       22.39622
N         50.50262       53.30196       23.09882
C         49.22567       52.72886       22.68333
C         49.43531       51.33465       22.13146
O         48.92765       51.03503       21.06099
C         48.25541       52.67830       23.86885
H         50.61878       53.58143       24.08556
H         48.75881       53.37169       21.90330
H         48.65915       52.04659       24.68854
H         48.08318       53.70461       24.25855
H         47.27726       52.26300       23.54312
N         50.23673       50.45660       22.79966
C         50.57565       49.11155       22.35524
C         49.35494       48.22109       22.45318
O         48.97847       47.56509       21.49117
C         51.25524       49.14107       20.95996
C         51.83118       47.82204       20.51638
O         51.77026       46.72770       21.30027
O         52.37122       47.74616       19.42476
H         50.66471       50.76974       23.68265
H         51.31823       48.70850       23.08049
H         52.08963       49.87555       20.98663
H         50.52960       49.46922       20.18793
N         48.68270       48.16274       23.63524
C         47.52791       47.31927       23.85097
C         47.95783       45.95865       24.33076
O         47.62756       44.96676       23.69758
H         48.99172       48.75954       24.41837
H         46.89431       47.27492       22.93786
H         46.90322       47.76648       24.65466
N         48.65585       45.84713       25.49757
C         48.99896       44.57157       26.11705
C         49.56180       44.82118       27.50624
O         50.63249       45.40301       27.62685
C         50.02185       43.76787       25.28352
C         50.31227       42.43759       25.94112
N         51.54687       42.15149       26.41589
O         49.41431       41.61759       26.06215
H         48.87721       46.71798       26.00651
H         48.05856       43.98375       26.21124
H         50.95573       44.36501       25.18666
H         49.64324       43.57280       24.25926
H         52.31164       42.83497       26.34383
H         51.73530       41.24896       26.87656
N         48.86498       44.42999       28.60759
C         49.34091       44.66326       29.95613
C         50.49115       43.75227       30.29611
O         50.28864       42.54552       30.29326
H         47.93797       43.99323       28.49044
H         48.52589       44.42716       30.67476
H         49.59655       45.73735       30.08244
N         51.71417       44.25298       30.64104
C         52.80227       43.40461       31.12785
C         54.00704       43.35300       30.19200
O         54.86627       42.51495       30.42600
C         53.20551       43.82574       32.57004
C         53.79611       45.24535       32.67414
O         52.10905       43.69442       33.44192
H         51.85593       45.27292       30.60053
H         52.44746       42.35243       31.18834
H         53.99172       43.12548       32.92667
H         51.47011       44.42967       33.24595
H         54.69681       45.34252       32.04507
H         53.06648       46.02087       32.36375
H         54.08976       45.45331       33.72479
N         54.15941       44.20370       29.13442
C         55.29374       44.14248       28.20783
C         54.80570       44.19681       26.77401
O         53.97145       45.03184       26.45202
C         56.34253       45.25293       28.48294
C         55.73792       46.67792       28.43500
C         57.05962       44.95927       29.81387
C         56.77904       47.78042       28.61449
H         53.46778       44.95257       28.99313
H         55.84905       43.18549       28.32875
H         57.11930       45.17137       27.68834
H         54.95657       46.79373       29.21598
H         55.27183       46.84349       27.44291
H         57.90773       45.65087       29.98002
H         56.36318       45.03282       30.66523
H         57.48874       43.93363       29.80094
H         57.57328       47.68717       27.84359
H         56.28717       48.76895       28.50466
H         57.23341       47.74215       29.62467
N         55.29383       43.31936       25.85155
C         54.83521       43.30482       24.46562
C         55.20010       41.97546       23.78720
O         55.45126       41.94470       22.59035
C         55.37441       44.56991       23.73816
C         54.76678       44.83362       22.38954
O         53.94112       44.07582       21.90602
O         55.13989       45.92123       21.69203
H         56.00285       42.63880       26.16023
H         53.72446       43.33139       24.48684
H         56.48053       44.48580       23.63687
H         55.16493       45.47363       24.34421
N         55.21259       40.81777       24.51468
C         55.47914       39.49228       23.96709
C         56.80394       39.44237       23.20613
O         57.82378       39.75689       23.80297
C         55.55027       38.46599       25.12584
C         55.86665       37.07748       24.62654
C         54.92204       36.34979       23.88633
C         57.12890       36.51164       24.87813
C         55.23910       35.07816       23.39908
C         57.44466       35.24482       24.38267
C         56.50076       34.52812       23.64342
H         55.00620       40.86805       25.52267
H         54.63044       39.23158       23.30778
H         54.60547       38.44813       25.71132
H         56.35586       38.80255       25.81734
H         53.94405       36.76909       23.68502
H         57.87661       37.05912       25.43906
H         54.50870       34.52135       22.82724
H         58.42375       34.82241       24.56793
H         56.74827       33.54752       23.25914
N         56.88755       38.99063       21.91292
C         58.13328       38.82844       21.17679
C         58.96202       40.08945       21.08257
O         60.14825       40.04086       21.37676
C         57.67774       38.40193       19.77342
C         56.43523       37.60954       20.08507
C         55.76802       38.49265       21.13342
H         58.71671       38.00669       21.65264
H         57.33699       39.28551       19.18756
H         58.45306       37.86823       19.18316
H         55.79376       37.36000       19.21378
H         56.75754       36.66135       20.57628
H         55.23228       39.35824       20.68574
H         55.07074       37.84421       21.69533
N         58.40106       41.25540       20.64925
C         59.17998       42.46760       20.41319
C         59.85119       43.00714       21.67258
O         60.70738       43.87055       21.53613
C         58.30041       43.58858       19.82268
C         57.64615       43.25151       18.46600
C         56.79985       44.41833       18.04946
O         55.46135       44.30420       18.03828
O         57.30616       45.52018       17.90503
H         57.39166       41.25723       20.44296
H         59.97761       42.21241       19.68012
H         58.92958       44.49577       19.68318
H         57.50229       43.83083       20.56281
H         56.99324       42.35945       18.56310
H         58.41621       43.04613       17.69364
N         59.50631       42.58227       22.92188
C         60.13527       43.06869       24.13361
H         60.94745       43.79777       23.92955
H         59.37262       43.56075       24.77262
H         60.57087       42.21130       24.68820
H         58.75013       41.89876       23.03886
Ca        54.64836       45.76704       19.51450
O         53.67059       46.51178       16.76497
H         52.92030       46.43157       16.12439
H         54.26010       47.20604       16.37673
O         55.75204       48.56709       19.46246
H         55.68989       49.21912       18.72014
H         56.72386       48.45158       19.61313
O         52.02315       44.09510       19.24506
H         51.17194       44.20815       19.73804
H         51.99753       43.16238       18.91386

Ca 1.0



