%chk=apoCaM-CA-Ng.loop4.water4.frame541.chk
%nprocshared=20
%mem=10GB
%nosave
#b3lyp/svp scf=(tight,noincore,xqc) Test 
#IOP(5/87=12) Density=Current Pop=(MK,readradii) iop(6/33=2) iop(6/42=6)

apoCaM-CA-Ng.loop4.water4.frame541 

   -3  1 
C         66.96272       11.12471       65.24759
C         65.82451       10.15657       65.37986
O         65.23275       10.06325       66.44512
H         67.88916       10.56940       64.98664
H         66.74030       11.85303       64.43933
H         67.13186       11.67631       66.19578
N         65.48405        9.38305       64.31031
C         64.44183        8.35771       64.26904
C         63.01683        8.87801       64.35369
O         62.12171        8.06987       64.13652
C         64.61422        7.29180       65.36943
C         65.97536        6.68361       65.43187
O         66.10787        5.47721       65.29958
O         67.03665        7.43108       65.78353
H         66.04541        9.49244       63.45104
H         64.53166        7.85855       63.27765
H         63.86623        6.48302       65.21012
H         64.40607        7.73098       66.36836
N         62.69435       10.15657       64.71144
C         61.30138       10.54789       64.90911
C         60.52734       10.47921       63.59787
O         61.14368       10.63444       62.55266
C         61.13723       11.90807       65.65162
C         61.75572       13.09020       64.86403
C         61.70855       11.78696       67.08118
C         61.52793       14.44758       65.53154
H         63.43450       10.83158       64.92037
H         60.88341        9.78271       65.58287
H         60.04881       12.10519       65.75991
H         61.28748       13.13064       63.85785
H         62.84851       12.95277       64.73295
H         62.80473       11.61795       67.06856
H         61.49038       12.69201       67.68220
H         61.23004       10.93742       67.61429
H         60.44220       14.63367       65.67104
H         62.04265       14.50594       66.51230
H         61.94963       15.24810       64.88869
N         59.19831       10.16439       63.53001
C         58.32930        9.92740       64.68155
C         57.88471        8.48308       64.80129
O         57.44559        8.12645       65.88333
C         57.11461       10.88102       64.68476
C         56.23407       10.77630       63.46501
O         54.95529       10.37541       63.58981
O         56.65268       11.09994       62.36535
H         58.79505       10.06430       62.58785
H         58.85930       10.13415       65.62478
H         57.46874       11.92968       64.77586
H         56.49709       10.65229       65.57910
N         57.95107        7.58830       63.77433
C         57.47637        6.22166       63.91579
C         56.00307        6.19851       64.26984
O         55.20266        6.72542       63.50995
H         58.32256        7.87167       62.85712
H         58.07983        5.70023       64.69075
H         57.61991        5.67900       62.95565
N         55.57322        5.58221       65.40907
C         54.15932        5.48310       65.77251
C         53.49129        6.82188       66.10419
O         52.26886        6.86043       66.09863
C         53.94188        4.45984       66.91704
C         54.68211        4.73718       68.20467
O         54.52596        3.89781       69.24545
O         55.44657        5.68086       68.31324
H         56.27664        5.10676       65.99429
H         53.62978        5.07098       64.88415
H         54.27378        3.46035       66.56255
H         52.85499        4.39659       67.13983
N         54.20089        7.93710       66.44345
C         53.59187        9.22907       66.75274
C         53.73831        9.62235       68.21424
O         53.32286       10.71566       68.56804
H         55.21920        7.86976       66.52111
H         52.50557        9.23100       66.52198
H         54.07065        9.99936       66.11303
N         54.28150        8.76753       69.12479
C         54.40962        9.00067       70.55765
C         55.35556       10.14525       70.88064
O         55.08274       10.91860       71.78947
C         53.03383        9.14173       71.25038
C         52.11068        7.94412       70.96403
C         50.78227        8.04052       71.67771
N         49.85979        7.06512       71.51291
O         50.52936        8.99063       72.40518
H         54.61498        7.85475       68.80389
H         54.89703        8.09207       70.97920
H         52.53277       10.07463       70.91320
H         53.19707        9.21034       72.34894
H         52.61439        7.00726       71.28568
H         51.91274        7.88518       69.87190
H         50.05240        6.25765       70.90225
H         48.95018        7.11742       71.99524
N         56.52239       10.28083       70.19119
C         57.56525       11.24104       70.54897
C         58.92280       10.56769       70.72535
O         59.84805       11.26184       71.12632
C         57.68372       12.37661       69.49210
C         57.93561       11.83799       68.07588
C         56.44183       13.27488       69.50189
H         56.66996        9.67170       69.37394
H         57.32867       11.71534       71.52758
H         58.54387       13.02594       69.77214
H         58.08391       12.67936       67.36638
H         58.84170       11.19959       68.05054
H         57.06881       11.24090       67.72975
H         56.30157       13.71405       70.51315
H         56.57419       14.11269       68.78373
H         55.53115       12.70415       69.22574
N         59.15582        9.25992       70.39754
C         60.49724        8.69990       70.43801
C         61.05515        8.56948       71.83634
O         60.34394        8.63476       72.82967
C         60.55413        7.30977       69.76373
C         60.51382        7.39326       68.26958
N         61.54270        7.97170       67.60898
O         59.59227        6.88890       67.64715
H         58.40230        8.66746       70.02803
H         61.17045        9.39608       69.88921
H         59.74290        6.66373       70.16711
H         61.52007        6.81216       69.97508
H         62.34445        8.37435       68.11841
H         61.55942        7.97970       66.58530
N         62.39373        8.36959       71.93419
C         63.13428        8.07779       73.15230
C         64.60136        8.46518       72.96333
O         64.96139        8.96020       71.90152
C         62.91435        6.58067       73.51322
C         63.03568        5.65401       72.31189
C         64.24781        5.49201       71.61860
C         61.89569        4.96165       71.85380
C         64.30428        4.67655       70.48044
C         61.95891        4.15377       70.71432
C         63.16028        4.01563       70.01882
O         63.20374        3.25260       68.90726
H         62.91520        8.35128       71.04361
H         62.77856        8.71742       73.99000
H         61.87476        6.50186       73.89996
H         63.58073        6.25323       74.33795
H         65.14422        6.00069       71.94590
H         60.94456        5.06603       72.36018
H         65.23015        4.55771       69.94389
H         61.06845        3.64769       70.36257
H         64.01109        3.15185       68.38224
N         65.51397        8.28153       73.95722
C         66.92408        8.61581       73.78554
C         67.69506        7.32299       73.70790
O         67.71376        6.60490       74.69905
C         67.44880        9.47478       74.95272
C         66.75834       10.84089       75.05353
C         67.30022       11.66545       76.19417
O         66.85266       12.78285       76.39362
O         68.27195       11.19174       77.00109
H         65.21534        7.83669       74.83918
H         67.07936        9.19016       72.85387
H         68.53893        9.64254       74.80241
H         67.30513        8.92335       75.90934
H         65.66755       10.69807       75.20927
H         66.91708       11.39977       74.10612
N         68.31724        6.88410       72.57679
C         68.34987        7.55502       71.27187
C         69.24559        8.77690       71.30220
O         70.39569        8.66767       71.70518
C         68.87359        6.56170       70.20939
C         67.84593        5.43922       69.98517
C         68.42764        4.26069       69.25704
O         68.90165        4.36259       68.00369
O         68.46688        3.17536       69.81380
H         68.76412        5.95576       72.64653
H         67.32278        7.84299       70.95298
H         69.84369        6.14776       70.56207
H         69.04666        7.07133       69.23726
H         66.97528        5.85844       69.43522
H         67.48269        5.06261       70.96476
N         68.79201        9.97368       70.83415
C         69.62695       11.15508       70.79569
H         70.53667       10.95918       70.18769
H         69.07123       11.99752       70.33027
H         69.92220       11.44625       71.82525
H         67.83253       10.04638       70.46262
Ca        68.60563        6.16271       66.71553
O         69.56528        3.08083       65.43625
H         69.08796        2.78253       64.62257
H         69.20781        2.50122       66.15487
O         70.26739        8.65671       67.37442
H         69.57603        9.19924       66.91802
H         71.10384        9.17514       67.26805
O         68.62546        5.12580       62.94598
H         69.09454        5.54430       62.18108
H         68.47224        4.19057       62.65912
O         71.59242        4.96855       67.66917
H         72.56738        5.07233       67.79648
H         71.40896        4.03369       67.93965

Ca 1.0



