%chk=apoCaM-CA-Ng.loop2.water4.frame756.chk
%nprocshared=20
%mem=10GB
%nosave
#b3lyp/svp scf=(tight,noincore,xqc) Test 
#IOP(5/87=12) Density=Current Pop=(MK,readradii) iop(6/33=2) iop(6/42=6)

apoCaM-CA-Ng.loop2.water4.frame756 

   -2  1 
C         89.87413       37.41043       -6.53763
C         90.69783       38.09764       -7.58575
O         90.19027       38.38155       -8.66160
H         88.84124       37.22600       -6.90180
H         90.33968       36.43626       -6.27667
H         89.82712       38.04547       -5.62828
N         92.00415       38.38690       -7.33405
C         92.88675       39.01299       -8.31163
C         92.72462       40.53827       -8.35805
O         93.47952       41.16939       -9.08108
C         94.34218       38.57866       -8.02438
C         95.29423       38.97307       -9.12277
O         95.11794       38.57250      -10.26335
O         96.35336       39.75782       -8.85083
H         92.40030       38.08844       -6.42843
H         92.65111       38.59768       -9.31795
H         94.37248       37.46815       -7.95791
H         94.67866       38.99574       -7.05144
N         91.74405       41.19420       -7.65882
C         91.50139       42.63982       -7.74147
C         90.22747       43.00426       -6.98547
O         89.23074       42.32360       -7.18740
C         91.27568       43.10166       -9.19318
H         91.10975       40.64302       -7.06584
H         92.38486       43.18411       -7.34886
H         91.05955       44.19262       -9.20554
H         92.16979       42.96221       -9.82810
H         90.42079       42.56263       -9.65286
N         90.09995       44.11295       -6.20016
C         91.14336       45.10928       -5.97833
C         92.13926       44.66566       -4.91834
O         91.96624       43.61410       -4.31763
C         90.50517       46.47985       -5.61614
C         89.66421       46.51379       -4.36506
O         89.07089       47.66750       -4.00550
O         89.49488       45.51785       -3.68282
H         89.15074       44.31081       -5.84668
H         91.68157       45.28787       -6.93389
H         89.85532       46.79222       -6.46138
H         91.30033       47.24684       -5.51167
N         93.20802       45.46000       -4.63019
C         94.16002       45.20472       -3.56299
C         95.57078       45.08289       -4.09543
O         95.74545       44.99955       -5.30353
H         93.34405       46.32630       -5.17247
H         93.90680       44.28983       -2.98750
H         94.10951       46.07527       -2.87738
N         96.66099       45.09133       -3.27370
C         96.60474       45.27355       -1.82410
C         95.87021       44.13508       -1.13809
O         96.24892       42.98235       -1.29399
C         98.02551       45.42330       -1.23458
C         98.65261       46.73606       -1.65160
N         99.81241       46.77620       -2.34627
O         98.10479       47.78384       -1.33970
H         97.58966       45.01658       -3.72033
H         96.07161       46.22245       -1.59850
H         98.65537       44.55522       -1.53069
H         97.96509       45.43899       -0.12449
H        100.29993       45.91165       -2.61883
H        100.22559       47.68373       -2.61121
N         94.81378       44.41628       -0.32089
C         94.06636       43.39810        0.40077
C         93.08324       44.05230        1.35189
O         93.53411       44.77506        2.22783
H         94.54967       45.40503       -0.18747
H         94.76681       42.78427        1.00779
H         93.55214       42.73465       -0.32778
N         91.73718       43.83257        1.25694
C         90.73734       44.47572        2.12067
C         89.37379       43.81209        1.92876
O         88.83261       43.83224        0.83255
C         90.62323       46.00320        1.83903
C         89.47559       46.66121        2.61748
O         91.80771       46.66825        2.19528
H         91.41563       43.15078        0.55397
H         91.04035       44.32958        3.18090
H         90.40761       46.14306        0.75658
H         92.24235       46.98507        1.36105
H         89.61587       46.52008        3.71000
H         89.44651       47.74841        2.39394
H         88.49292       46.23615        2.32154
N         88.77021       43.19756        2.98427
C         87.49535       42.49003        2.89898
C         86.32170       43.46920        2.82645
O         86.13086       44.24732        3.75036
C         87.33474       41.53041        4.12653
C         85.97063       40.78752        4.09134
C         88.49741       40.51077        4.15494
C         85.72744       39.88362        5.30418
H         89.27600       43.18541        3.88227
H         87.50849       41.83519        1.99823
H         87.37454       42.13991        5.05718
H         85.89152       40.17949        3.16347
H         85.15176       41.53653        4.09254
H         89.48628       41.00780        4.19253
H         88.45396       39.87464        5.05998
H         88.46758       39.86277        3.25290
H         84.72073       39.42734        5.24368
H         86.44921       39.04509        5.34202
H         85.78621       40.47580        6.24126
N         85.44064       43.39709        1.78745
C         84.16707       44.11002        1.70532
C         82.98893       43.13034        1.74691
O         81.85588       43.59114        1.71453
C         84.10405       44.90834        0.39723
C         85.16038       45.96587        0.32713
O         85.10737       46.94125        1.05994
O         86.16923       45.84476       -0.55323
H         85.64821       42.74378        1.02970
H         84.04495       44.80234        2.56828
H         83.11629       45.40669        0.27847
H         84.22651       44.19948       -0.44918
N         83.17038       41.78035        1.87937
C         82.08694       40.83162        2.09819
C         82.27708       39.59932        1.20583
O         82.46119       38.51154        1.73560
C         82.11498       40.51249        3.61018
C         81.07559       39.54489        4.11918
C         79.70233       39.80835        3.98080
C         81.48641       38.37729        4.78770
C         78.75968       38.91465        4.50312
C         80.54279       37.49135        5.31032
C         79.17996       37.75922        5.16906
H         84.12057       41.39815        1.95891
H         81.09591       41.28501        1.88249
H         81.97745       41.46676        4.16543
H         83.12390       40.13183        3.85332
H         79.36066       40.70489        3.47976
H         82.53866       38.15678        4.91731
H         77.70239       39.12052        4.39938
H         80.87073       36.60077        5.83096
H         78.45108       37.07291        5.58001
N         82.23150       39.66958       -0.16433
C         82.31723       38.50546       -1.04515
C         83.60789       37.70365       -0.98150
O         83.67281       36.66576       -1.62658
C         82.20749       39.10901       -2.45135
C         81.33117       40.31506       -2.21067
C         81.91609       40.86817       -0.91250
H         81.44708       37.85428       -0.80353
H         83.20292       39.51136       -2.75746
H         81.86104       38.40076       -3.23448
H         81.29265       41.04380       -3.04787
H         80.30177       39.94160       -2.00689
H         82.85959       41.42991       -1.09219
H         81.15490       41.51503       -0.42960
N         84.70057       38.15118       -0.30241
C         85.96424       37.43134       -0.29155
C         85.80038       36.16864        0.52734
O         86.02385       35.08751        0.00063
C         87.13807       38.27732        0.26831
C         87.69179       39.37393       -0.67992
C         86.91932       40.65700       -0.82417
O         87.45891       41.66071       -1.54230
O         85.87154       40.84296       -0.24178
H         84.63304       39.03251        0.20807
H         86.25270       37.15744       -1.33242
H         87.98867       37.56708        0.37706
H         86.92180       38.68495        1.27948
H         87.87458       38.93968       -1.68617
H         88.67451       39.68318       -0.26306
N         85.39987       36.23937        1.82832
C         85.22212       35.07706        2.67467
H         84.16313       35.02015        3.00249
H         85.48049       34.13005        2.15556
H         85.87153       35.17296        3.56961
H         85.19792       37.16200        2.24253
Ca        86.72500       43.80003       -1.36467
O         85.82560       44.70798       -4.12860
H         85.75128       43.75245       -4.37759
H         86.69730       44.99459       -4.50049
O         90.38628       44.02791       -1.58632
H         91.16581       44.63510       -1.65626
H         90.66534       43.20270       -2.05558
O         88.74749       46.75737       -1.07960
H         89.60726       47.17353       -1.33799
H         88.44353       47.28164       -0.29677
O         88.19968       42.21474       -4.24163
H         87.56507       41.45526       -4.27461
H         89.09395       41.79432       -4.30214

Ca 1.0



