%chk=apoCaM-CA-Ng.loop1.water3.frame176.chk
%nprocshared=20
%mem=10GB
%nosave
#b3lyp/svp scf=(tight,noincore,xqc) Test 
#IOP(5/87=12) Density=Current Pop=(MK,readradii) iop(6/33=2) iop(6/42=6)

apoCaM-CA-Ng.loop1.water3.frame176 

   0  1 
C         91.09977       42.48702       13.98355
C         91.31783       43.97262       13.98500
O         90.85174       44.63345       13.06798
H         90.01042       42.27513       13.96125
H         91.57514       42.03868       13.08563
H         91.53271       42.01017       14.88802
N         92.05260       44.56537       14.96914
C         92.31087       46.00223       15.01603
C         93.69956       46.35058       14.49138
O         94.03049       47.52593       14.48571
C         92.05835       46.56880       16.43571
C         93.04810       46.11001       17.47822
O         93.12790       44.93441       17.79451
O         93.83300       47.01378       18.09613
H         92.49362       43.95890       15.67467
H         91.59685       46.52867       14.34507
H         91.02899       46.30931       16.76659
H         92.11777       47.67833       16.37855
N         94.53235       45.40327       13.96428
C         95.84477       45.69276       13.38938
C         95.80818       45.47482       11.88591
O         95.14431       44.53553       11.46868
C         96.91127       44.77442       14.00609
C         97.17675       45.09585       15.48033
C         98.37777       44.28581       15.98108
C         98.70582       44.61181       17.44086
N         99.88743       43.87100       17.88189
H         94.21460       44.42458       13.91381
H         96.14578       46.72225       13.59674
H         97.86090       44.92395       13.45696
H         96.62597       43.70655       13.88231
H         96.27178       44.87640       16.08760
H         97.42053       46.17734       15.57866
H         99.26431       44.53403       15.35482
H         98.16441       43.19931       15.88080
H         97.83771       44.34545       18.08317
H         98.90157       45.70269       17.54478
H        100.71770       44.14678       17.30774
H        100.08060       44.09771       18.88378
H         99.72375       42.84205       17.79050
N         96.50496       46.22471       10.97094
C         97.42177       47.34706       11.19648
C         98.62264       46.95768       12.04673
O         98.71761       47.42407       13.17472
C         96.73673       48.63776       11.71501
C         95.53040       49.02684       10.91820
O         94.35292       49.20840       11.54301
O         95.61000       49.20435        9.71468
H         96.39607       45.94758        9.98231
H         97.82374       47.64034       10.20777
H         97.48594       49.45500       11.65021
H         96.43743       48.58250       12.77220
N         99.62279       46.13922       11.60527
C         99.80061       45.68350       10.23059
C        100.56891       44.37384       10.18724
O        100.74006       43.76089       11.23274
H        100.41618       45.99963       12.25182
H        100.37678       46.46769        9.70197
H         98.83202       45.53591        9.71033
N        101.06044       43.82827        9.03510
C        101.04657       44.44831        7.70908
C        101.94822       45.66868        7.64723
O        103.03904       45.62177        8.20106
C        101.51548       43.45539        6.61143
C        102.94391       42.97013        6.74350
O        103.75904       43.23669        5.87479
O        103.32640       42.21271        7.78906
H        101.48623       42.89560        9.12702
H        100.00279       44.72414        7.44285
H        101.41417       43.97298        5.63022
H        100.84040       42.57454        6.59328
N        101.59267       46.76246        6.90835
C        102.46675       47.91639        6.73995
C        101.89430       49.17953        7.33010
O        102.64603       50.13871        7.44403
H        100.68606       46.76131        6.41772
H        102.70300       48.07225        5.66578
H        103.43270       47.74460        7.26195
N        100.60281       49.27186        7.76696
C        100.15622       50.41495        8.55562
C        100.85361       50.32442        9.90569
O        101.28123       49.23436       10.26936
C         98.61792       50.42814        8.69990
C         97.93350       50.60714        7.33640
O         98.22746       51.47481        9.54979
H         99.94767       48.49234        7.61556
H        100.45813       51.35382        8.03867
H         98.31201       49.45736        9.13479
H         97.31623       51.25489        9.87614
H         98.21128       51.58765        6.89392
H         98.22082       49.80184        6.62854
H         96.83097       50.57523        7.45797
N        101.07327       51.43046       10.67125
C        101.87960       51.37458       11.89260
C        101.08606       51.65541       13.15246
O        101.62213       51.39264       14.21974
C        103.12880       52.29895       11.79818
C        102.73143       53.78563       11.58921
C        104.07462       51.79944       10.69055
C        103.90142       54.75638       11.74992
H        100.69820       52.33456       10.34882
H        102.25257       50.33787       12.04695
H        103.67548       52.21263       12.76389
H        101.97507       54.07454       12.34956
H        102.28372       53.92990       10.58261
H        104.35431       50.74075       10.87923
H        103.59072       51.86616        9.69323
H        105.01633       52.38335       10.67099
H        103.53452       55.79621       11.61663
H        104.33317       54.66414       12.76913
H        104.69260       54.57707       10.99549
N         99.83166       52.18966       13.13533
C         99.06399       52.39249       14.36220
C         97.63973       51.89752       14.19468
O         97.26657       51.48352       13.10812
C         99.18940       53.85284       14.85712
C         98.69333       54.88297       13.84518
O        100.53558       54.13227       15.14785
H         99.41676       52.49071       12.24237
H         99.48418       51.75792       15.17319
H         98.59006       53.98653       15.78625
H        100.76274       53.63225       15.97649
H         98.81018       55.90066       14.27645
H         99.29179       54.83453       12.91093
H         97.62232       54.71700       13.61039
N         96.80427       51.85729       15.27154
C         95.48528       51.23343       15.23092
C         94.38235       52.23999       15.50240
O         94.66056       53.40232       15.76052
C         95.44856       50.03393       16.22120
C         95.60533       50.44287       17.68857
O         96.47349       49.12633       15.91080
H         97.13951       52.23261       16.16878
H         95.28263       50.82667       14.21593
H         94.46594       49.51646       16.15060
H         96.18966       48.63590       15.09963
H         94.81180       51.15865       17.97884
H         95.51994       49.54239       18.33344
H         96.59600       50.90205       17.87946
N         93.08137       51.83675       15.43411
C         91.95399       52.71672       15.72430
C         90.66174       52.33190       14.99132
O         89.68304       53.04147       15.18536
C         91.76890       52.82678       17.25715
C         91.50506       51.46821       17.93401
C         91.35148       51.55483       19.46496
C         92.61555       52.06466       20.18306
N         92.46508       51.98417       21.63590
H         92.90873       50.84139       15.25819
H         92.18889       53.73738       15.34736
H         90.93670       53.52813       17.48655
H         92.70072       53.26387       17.67050
H         92.33761       50.76807       17.70908
H         90.57010       51.03616       17.51677
H         91.13510       50.52716       19.82999
H         90.48742       52.20426       19.72470
H         92.81597       53.12072       19.90181
H         93.48839       51.44642       19.88449
H         91.64437       52.55089       21.94961
H         92.33958       50.98715       21.92671
H         93.32996       52.35762       22.09054
N         90.56866       51.28036       14.11533
C         89.35300       50.94958       13.38186
C         88.87142       49.57924       13.81076
O         89.61451       48.61574       13.67602
C         89.59408       50.95913       11.85183
C         89.99575       52.33253       11.28377
C         91.39493       52.73609       11.65661
O         92.45173       52.03675       11.19569
O         91.58489       53.72577       12.34464
H         91.37570       50.67626       13.92216
H         88.54861       51.68807       13.59168
H         88.63097       50.67842       11.37053
H         90.34606       50.19452       11.56377
H         89.25940       53.08984       11.63057
H         89.95123       52.29689       10.17400
N         87.62207       49.42213       14.33225
C         87.08807       48.14531       14.76152
H         86.18050       47.90872       14.16739
H         87.81543       47.31581       14.63601
H         86.80877       48.20716       15.83390
H         87.00638       50.24397       14.42638
Ca        92.20720       50.40500        9.64242
O         94.81300       52.15025        8.93888
H         95.27504       52.52955        8.14970
H         95.04675       52.76164        9.68179
O         91.80625       47.84414       11.17500
H         91.96801       48.17498       12.09427
H         92.11977       46.90571       11.18907
O         94.23743       49.36931        7.08941
H         94.43018       49.82355        6.23116
H         94.67424       48.48446        7.00619

Ca 1.0



