%chk=apoCaM-CA-Ng.loop2.water4.frame396.chk
%nprocshared=20
%mem=10GB
%nosave
#b3lyp/svp scf=(tight,noincore,xqc) Test 
#IOP(5/87=12) Density=Current Pop=(MK,readradii) iop(6/33=2) iop(6/42=6)

apoCaM-CA-Ng.loop2.water4.frame396 

   -2  1 
C         -6.38267       69.29737       37.65017
C         -7.63121       68.46721       37.55578
O         -8.71794       69.02420       37.49134
H         -5.70676       69.06391       36.80102
H         -6.62170       70.38265       37.62795
H         -5.86023       69.07020       38.60335
N         -7.54365       67.10800       37.52601
C         -8.71664       66.23980       37.45715
C         -9.52294       66.33791       38.73877
O         -8.98902       66.02335       39.79354
C         -8.32856       64.76754       37.18119
C         -7.52567       64.10243       38.27364
O         -6.41779       64.51348       38.57805
O         -8.03167       63.03233       38.91582
H         -6.60125       66.69302       37.52136
H         -9.33240       66.56367       36.58805
H         -7.75754       64.71353       36.22996
H         -9.27053       64.19237       37.04362
N        -10.80345       66.80426       38.73109
C        -11.56886       66.98799       39.95857
C        -11.54679       68.44583       40.34285
O        -11.02056       69.25799       39.59383
C        -13.00347       66.47387       39.77997
H        -11.21325       67.13059       37.84181
H        -11.10020       66.43095       40.79884
H        -12.99768       65.39483       39.52037
H        -13.58843       66.59776       40.71635
H        -13.51943       67.03577       38.97142
N        -12.09909       68.85342       41.51685
C        -12.08995       70.24529       41.93860
C        -13.40353       70.89327       41.59216
O        -14.30835       70.22000       41.11471
C        -11.77701       70.34173       43.44819
C        -10.38218       69.87320       43.71073
O        -10.14196       68.95389       44.47642
O         -9.39766       70.51971       43.07352
H        -12.57729       68.16256       42.11518
H        -11.32383       70.81905       41.36813
H        -12.51534       69.75797       44.03955
H        -11.82686       71.40116       43.77862
N        -13.56280       72.23278       41.76733
C        -14.82203       72.87471       41.43634
C        -14.91083       74.36699       41.70174
O        -16.02723       74.85968       41.62531
H        -12.77264       72.76085       42.15426
H        -15.60378       72.38628       42.05618
H        -15.06536       72.69912       40.36437
N        -13.83540       75.17012       41.97232
C        -13.97148       76.59706       42.24971
C        -13.46165       77.44835       41.08760
O        -13.46919       78.66552       41.21307
C        -13.26552       76.95014       43.57778
C        -13.78318       76.13410       44.74204
N        -12.93521       75.41251       45.51374
O        -14.97766       76.13880       45.00146
H        -12.87683       74.80112       41.95107
H        -15.04181       76.87307       42.37409
H        -13.45529       78.02123       43.80600
H        -12.16805       76.80888       43.47363
H        -11.92133       75.41101       45.33023
H        -13.29037       74.86598       46.31302
N        -13.09099       76.89159       39.89387
C        -12.73337       77.67320       38.71768
C        -11.40920       78.39005       38.83987
O        -10.75247       78.29799       39.86753
H        -13.14323       75.87149       39.76575
H        -13.54436       78.40332       38.50090
H        -12.65116       76.98773       37.84738
N        -10.95301       79.13519       37.78798
C         -9.70117       79.89256       37.83906
C         -8.46207       78.99385       37.89900
O         -7.37387       79.52575       38.07323
C         -9.58177       80.89542       36.64954
C         -9.21854       80.25040       35.29833
O        -10.74656       81.68152       36.54665
H        -11.55173       79.20107       36.95139
H         -9.74666       80.51158       38.76287
H         -8.74257       81.59095       36.86945
H        -11.38573       81.22676       35.93643
H         -9.16843       81.03016       34.50906
H         -8.20826       79.80100       35.36193
H         -9.95573       79.47604       35.00112
N         -8.54021       77.64017       37.72503
C         -7.38945       76.74348       37.71395
C         -7.49081       75.78310       38.88275
O         -8.49646       75.09819       39.01825
C         -7.32459       75.96936       36.35514
C         -7.06618       76.90311       35.14377
C         -6.28473       74.83067       36.37091
C         -5.71232       77.63015       35.15546
H         -9.45822       77.20034       37.56822
H         -6.44039       77.30355       37.83251
H         -8.31235       75.48366       36.18642
H         -7.87921       77.64780       35.08513
H         -7.11632       76.30038       34.21068
H         -6.55646       74.06669       37.12653
H         -6.26676       74.31396       35.38729
H         -5.26874       75.20740       36.60603
H         -5.62134       78.25637       34.24369
H         -5.61209       78.29970       36.03238
H         -4.86936       76.90854       35.14833
N         -6.41835       75.62353       39.71218
C         -6.34093       74.61473       40.75906
C         -5.88095       75.22565       42.09449
O         -5.55338       74.48414       43.00845
C         -5.39164       73.50437       40.23073
C         -5.46997       72.20911       40.99610
O         -6.24655       72.12815       42.08719
O         -4.89730       71.21486       40.58037
H         -5.56059       76.16500       39.52004
H         -7.33465       74.13601       40.90785
H         -4.34752       73.87052       40.15674
H         -5.73474       73.24548       39.20518
N         -5.86799       76.57675       42.29737
C         -5.38827       77.20282       43.53431
C         -3.88060       77.05448       43.65599
O         -3.21462       77.03664       42.63166
C         -5.75783       78.70243       43.53355
C         -7.23736       78.86887       43.77807
C         -7.74091       78.70618       45.08199
C         -8.12408       79.17582       42.73352
C         -9.10554       78.85253       45.33801
C         -9.49412       79.30551       42.99277
C         -9.98318       79.14714       44.29319
H         -6.22925       77.19166       41.55423
H         -5.87421       76.71831       44.40902
H         -5.44222       79.15064       42.56521
H         -5.22432       79.26735       44.32885
H         -7.07376       78.47812       45.90380
H         -7.76047       79.29596       41.72086
H         -9.48083       78.73601       46.34692
H        -10.17923       79.52901       42.18699
H        -11.04154       79.25293       44.49269
N         -3.25086       76.98493       44.87653
C         -1.80308       76.89964       45.03779
C         -1.16370       75.68386       44.39119
O          0.05679       75.63871       44.30946
C         -1.60712       76.84060       46.55736
C         -2.78636       77.64883       47.05250
C         -3.90823       77.13127       46.15682
H         -1.38162       77.83202       44.60053
H         -1.77981       75.79717       46.91247
H         -0.60727       77.17309       46.90901
H         -2.99332       77.57310       48.14069
H         -2.59498       78.71648       46.79538
H         -4.27284       76.13299       46.48627
H         -4.73097       77.87374       46.16100
N         -1.91878       74.64865       43.92846
C         -1.36366       73.50699       43.21587
C         -0.77491       73.99529       41.90957
O          0.40360       73.77520       41.67063
C         -2.45939       72.44751       42.97140
C         -2.92280       71.83134       44.30482
C         -4.04358       70.85643       44.12323
O         -5.20280       71.05277       44.77914
O         -3.90569       69.87255       43.41391
H         -2.93775       74.67541       44.07361
H         -0.56533       73.02307       43.82389
H         -2.05866       71.63218       42.32934
H         -3.31451       72.91934       42.44618
H         -3.27307       72.62432       44.99844
H         -2.06791       71.30619       44.78137
N         -1.53921       74.71534       41.04014
C         -1.03441       75.28059       39.80616
H          0.03388       75.03419       39.63243
H         -1.63194       74.89875       38.95322
H         -1.13333       76.38640       39.84759
H         -2.52343       74.90478       41.27629
Ca        -7.18519       70.30718       42.98267
O         -8.18215       70.63165       40.18855
H         -8.94213       71.26542       40.16884
H         -8.58702       69.74526       40.02005
O         -5.23336       67.67789       41.33255
H         -4.37087       67.75808       40.85292
H         -5.38519       66.70227       41.40883
O         -8.18731       67.30279       42.42024
H         -9.09219       67.51941       42.08322
H         -8.24392       67.46400       43.39443
O         -6.03938       67.94605       44.95870
H         -5.60550       67.32998       44.31626
H         -6.73696       67.39701       45.39732

Ca 1.0



