%chk=apoCaM-CA-Ng.loop2.water3.frame319.chk
%nprocshared=20
%mem=10GB
%nosave
#b3lyp/svp scf=(tight,noincore,xqc) Test 
#IOP(5/87=12) Density=Current Pop=(MK,readradii) iop(6/33=2) iop(6/42=6)

apoCaM-CA-Ng.loop2.water3.frame319 

   -2  1 
C         45.16587      111.16832       30.89434
C         44.88017      112.60807       30.58242
O         44.27532      113.28554       31.39967
H         46.26321      111.00093       30.91195
H         44.74670      110.88728       31.88468
H         44.70847      110.51924       30.11887
N         45.29978      113.14856       29.40391
C         45.05820      114.54093       29.03540
C         43.56657      114.81128       28.93452
O         42.90502      114.20584       28.10172
C         45.75164      114.86018       27.69548
C         45.51795      116.28090       27.26134
O         45.91594      117.30358       28.04149
O         44.96135      116.51244       26.19974
H         45.82510      112.54178       28.75465
H         45.51008      115.19131       29.81767
H         45.37516      114.16663       26.91040
H         46.84580      114.69693       27.80318
N         42.97235      115.70582       29.77825
C         41.53905      115.98618       29.77528
C         40.76762      114.70371       29.95252
O         39.88623      114.43441       29.14933
C         41.17649      116.97458       30.88625
H         43.56244      116.18188       30.47792
H         41.25229      116.45253       28.80554
H         40.08551      117.18677       30.86118
H         41.44005      116.56527       31.88445
H         41.72094      117.92999       30.73154
N         41.12005      113.82260       30.93458
C         40.56630      112.48312       31.06611
C         39.11088      112.57359       31.46640
O         38.24682      112.07316       30.75932
C         40.82465      111.69952       29.75327
C         40.53882      110.23402       29.81497
O         39.71008      109.73577       29.06987
O         41.32735      109.44055       30.55275
H         41.87643      114.08493       31.58330
H         41.11074      111.96496       31.88835
H         41.89970      111.79577       29.48458
H         40.23333      112.12792       28.92134
N         38.77839      113.21732       32.62229
C         37.41015      113.36524       33.08592
C         37.14888      112.62182       34.37625
O         36.00283      112.63121       34.80355
H         39.53023      113.62254       33.20185
H         36.69567      112.96462       32.33608
H         37.18425      114.44509       33.21902
N         38.12771      111.93979       35.04642
C         37.85988      111.12370       36.22579
C         38.55124      111.70233       37.45002
O         39.35279      112.61807       37.31596
C         38.34043      109.68759       35.91681
C         37.97661      108.67583       36.97096
N         38.93651      108.00543       37.64926
O         36.79911      108.45086       37.20704
H         39.10014      111.96554       34.70623
H         36.76838      111.11254       36.43569
H         39.44329      109.71062       35.76479
H         37.88038      109.34909       34.96281
H         39.93306      108.18759       37.47152
H         38.68346      107.30549       38.36167
N         38.24252      111.23559       38.69356
C         38.85279      111.72983       39.91488
C         39.43259      110.58027       40.69288
O         38.67322      109.70401       41.08490
H         37.51417      110.51280       38.78931
H         38.07338      112.21487       40.54122
H         39.63331      112.49041       39.70180
N         40.76947      110.51319       40.95820
C         41.36659      109.43179       41.73888
C         42.28733      108.54273       40.90411
O         42.67311      107.49743       41.40654
C         42.06915      109.99574       43.00502
C         43.26529      110.91757       42.70839
O         41.13832      110.66104       43.82378
H         41.37971      111.26022       40.59519
H         40.56391      108.75014       42.09686
H         42.46348      109.13697       43.59046
H         40.89325      111.51528       43.37974
H         43.72622      111.25228       43.66156
H         44.03595      110.37945       42.13151
H         42.95881      111.81980       42.14023
N         42.67599      108.87249       39.63500
C         43.48650      108.00608       38.77843
C         42.78360      107.84233       37.44724
O         42.52540      108.83812       36.78382
C         44.90892      108.60670       38.58549
C         45.71215      108.62205       39.91340
C         45.71113      107.87730       37.48753
C         46.04896      107.24046       40.49765
H         42.40151      109.78435       39.24441
H         43.60188      106.99846       39.22317
H         44.79369      109.66169       38.24889
H         45.14618      109.18995       40.67094
H         46.66926      109.16011       39.74467
H         45.81109      106.79494       37.70793
H         45.21306      107.97858       36.50099
H         46.72049      108.32932       37.38881
H         45.14076      106.65582       40.74183
H         46.68074      106.65328       39.80074
H         46.62009      107.37048       41.43987
N         42.45873      106.59862       36.98845
C         41.80736      106.38335       35.70030
C         41.26306      104.95468       35.61200
O         41.35200      104.33340       34.56579
C         42.83064      106.70287       34.57526
C         42.27250      106.75052       33.18355
O         40.95616      106.59221       32.94610
O         43.03147      106.96237       32.25200
H         42.67488      105.78770       37.58685
H         40.92931      107.06254       35.64996
H         43.64321      105.94270       34.61911
H         43.29453      107.69497       34.74607
N         40.68641      104.36918       36.70157
C         40.13794      103.01476       36.71558
C         41.17975      101.97692       36.28673
O         42.25269      101.96430       36.87554
C         39.67990      102.66434       38.15208
C         38.93742      101.35374       38.18626
C         37.65917      101.26493       37.61119
C         39.50718      100.21484       38.78001
C         36.96176      100.05537       37.62636
C         38.80931       99.00269       38.78401
C         37.53748       98.92369       38.20891
H         40.63808      104.91347       37.57631
H         39.25403      103.00089       36.04730
H         39.01163      103.45024       38.56620
H         40.58108      102.62545       38.80582
H         37.20361      102.13507       37.15473
H         40.49416      100.25943       39.22381
H         35.97621       99.99668       37.18360
H         39.25473       98.12363       39.23128
H         36.99748       97.98614       38.21426
N         40.93533      101.03510       35.31842
C         41.87777       99.97640       34.97875
C         42.96807      100.44954       34.02679
O         43.87818       99.68240       33.74625
C         40.97813       98.92584       34.31714
C         39.98682       99.79767       33.56737
C         39.68506      100.88320       34.59848
H         42.34345       99.53971       35.88980
H         41.50524       98.16053       33.70786
H         40.40404       98.40325       35.11656
H         40.53077      100.26045       32.71346
H         39.08722       99.28206       33.16953
H         39.36103      101.80970       34.07706
H         38.90832      100.54513       35.31385
N         42.90673      101.67724       33.44502
C         43.87868      102.16635       32.47700
C         45.16941      102.62904       33.14299
O         46.08798      102.98786       32.41857
C         43.26625      103.35699       31.71845
C         42.00342      102.97221       30.91911
C         41.33060      104.22982       30.47081
O         42.02865      105.13665       29.77127
O         40.20022      104.49345       30.84949
H         42.08791      102.26231       33.63750
H         44.10103      101.36285       31.73980
H         44.00501      103.79902       31.01318
H         43.00993      104.13122       32.47375
H         41.28185      102.40770       31.54619
H         42.28207      102.33483       30.05304
N         45.30684      102.69346       34.50114
C         46.50350      103.18259       35.15788
H         47.29371      103.48425       34.43855
H         46.24434      104.06788       35.77697
H         46.91292      102.39020       35.81763
H         44.53122      102.41374       35.11683
Ca        41.40782      107.28309       29.94141
O         38.28986      106.92660       30.14957
H         37.61255      107.60603       30.39419
H         38.16089      106.78472       29.17808
O         44.18421      107.58110       28.80354
H         44.35484      107.50388       29.77587
H         44.69080      108.38481       28.52572
O         40.61331      106.69415       27.16512
H         41.28722      106.59690       26.44650
H         39.78719      106.29728       26.79123

Ca 1.0



