%chk=apoCaM-CA-Ng.loop1.water4.frame316.chk
%nprocshared=20
%mem=10GB
%nosave
#b3lyp/svp scf=(tight,noincore,xqc) Test 
#IOP(5/87=12) Density=Current Pop=(MK,readradii) iop(6/33=2) iop(6/42=6)

apoCaM-CA-Ng.loop1.water4.frame316 

   0  1 
C         43.69358      114.40838       43.87315
C         44.16405      114.98811       42.57028
O         45.35330      114.93487       42.29093
H         42.59166      114.49907       43.98405
H         43.95573      113.32976       43.91192
H         44.18001      114.93547       44.71864
N         43.27158      115.53762       41.70225
C         43.64826      116.03245       40.38379
C         44.46833      117.32581       40.42137
O         44.79102      117.79291       39.35130
C         42.38986      116.28709       39.50963
C         41.56217      115.05242       39.25122
O         40.94165      114.41166       40.25940
O         41.41804      114.64540       38.10878
H         42.27600      115.53955       41.96862
H         44.23777      115.24594       39.86475
H         42.72604      116.65557       38.51691
H         41.75081      117.07028       39.97212
N         44.82934      117.99589       41.55231
C         45.44387      119.33384       41.49959
C         46.88232      119.32337       42.00720
O         47.18881      118.44249       42.79870
C         44.53306      120.29173       42.29062
C         43.21235      120.51961       41.52484
C         42.18297      121.35924       42.29779
C         42.63575      122.78032       42.68346
N         42.85805      123.63824       41.51856
H         44.61232      117.59747       42.47658
H         45.48478      119.70363       40.47058
H         45.02279      121.26303       42.44272
H         44.34067      119.86596       43.29965
H         42.73446      119.53833       41.31364
H         43.43725      120.99512       40.54655
H         41.92907      120.80932       43.22886
H         41.25811      121.43364       41.68433
H         43.55152      122.73894       43.31020
H         41.83447      123.23663       43.30443
H         43.17195      124.58070       41.84558
H         43.59435      123.24554       40.89946
H         41.97293      123.74439       40.97305
N         47.86513      120.21911       41.62385
C         47.80720      121.34773       40.67002
C         46.80387      122.39498       41.08942
O         45.81494      122.57738       40.39805
C         47.67575      120.90979       39.18896
C         48.86718      120.11324       38.75408
O         49.88044      119.88387       39.61345
O         48.90544      119.64503       37.62824
H         48.78714      120.08499       42.06920
H         48.78738      121.87377       40.67898
H         47.62492      121.80785       38.53726
H         46.76741      120.32054       38.99253
N         46.98887      123.15726       42.20802
C         48.23006      123.11959       42.96733
C         48.21215      123.99020       44.20624
O         47.16045      124.12659       44.81392
H         46.24853      123.82365       42.47704
H         49.03651      123.45003       42.28334
H         48.44770      122.08968       43.31163
N         49.35257      124.53285       44.73118
C         50.66129      124.47041       44.08098
C         50.77041      125.55879       43.02374
O         49.89467      126.41093       42.94389
C         51.80317      124.55718       45.12231
C         51.78818      125.82104       45.94125
O         51.63298      125.75127       47.27750
O         51.92980      126.90957       45.40790
H         49.26973      125.05083       45.61958
H         50.78680      123.47650       43.59982
H         52.78883      124.47241       44.61559
H         51.70860      123.68862       45.81044
N         51.83592      125.59695       42.17485
C         52.03456      126.66367       41.20604
C         50.98098      126.75910       40.11583
O         51.08594      127.68777       39.32762
H         52.56442      124.87078       42.24967
H         53.01862      126.52386       40.70695
H         52.06849      127.62968       41.75490
N         49.96366      125.85532       39.97518
C         48.96242      125.94632       38.91220
C         47.55508      126.02632       39.49808
O         47.35906      125.66578       40.64915
C         49.09469      124.70544       37.99329
C         50.47515      124.61432       37.33868
O         48.13360      124.74860       36.97547
H         49.90434      125.04970       40.61237
H         49.12224      126.86374       38.30463
H         48.94053      123.80173       38.63036
H         47.89673      123.80818       36.76066
H         50.65167      125.50189       36.69425
H         51.27747      124.54920       38.10196
H         50.52487      123.70201       36.70616
N         46.52141      126.50063       38.73803
C         45.11900      126.49761       39.16541
C         44.24422      125.68536       38.20887
O         43.04693      125.59704       38.44751
C         44.58170      127.95088       39.36859
C         44.62142      128.89174       38.13306
C         45.35199      128.62208       40.51863
C         43.74261      128.46249       36.96050
H         46.73806      126.87361       37.80145
H         45.02092      125.98927       40.15082
H         43.52255      127.87671       39.70503
H         45.66429      129.03259       37.77861
H         44.23527      129.88428       38.45515
H         46.42274      128.75498       40.25497
H         44.91757      129.61968       40.74455
H         45.28324      128.00889       41.44258
H         43.75322      129.25304       36.18136
H         44.13230      127.54587       36.48967
H         42.69351      128.30819       37.29301
N         44.77251      125.04648       37.12354
C         44.01524      124.24514       36.17589
C         44.39206      122.79063       36.38236
O         45.56396      122.44260       36.33776
C         44.21935      124.72579       34.71197
C         45.68092      124.79961       34.25132
O         43.64758      125.99733       34.54720
H         45.78116      125.07524       36.97207
H         42.92501      124.34220       36.37367
H         43.70352      124.00428       34.03382
H         42.67364      125.86305       34.40427
H         46.24551      125.55613       34.83543
H         46.18506      123.81698       34.33407
H         45.71523      125.11310       33.18626
N         43.41537      121.89437       36.68127
C         43.65647      120.50752       37.06760
C         44.37992      119.68197       35.99413
O         44.63858      120.16242       34.90025
C         42.30531      119.83774       37.48118
C         41.29566      119.70571       36.32282
O         41.73414      120.50755       38.58142
H         42.44837      122.24689       36.69625
H         44.31121      120.51732       37.96739
H         42.50019      118.80981       37.82877
H         41.20654      121.28180       38.25648
H         41.72616      119.10360       35.49619
H         40.37937      119.19329       36.68529
H         40.99827      120.69575       35.91978
N         44.69116      118.38345       36.27385
C         45.24434      117.39801       35.35752
C         46.45913      116.64919       35.95077
O         46.98774      115.78206       35.27046
C         44.07045      116.41635       35.11386
C         44.31638      115.24780       34.15611
C         43.03442      114.41678       34.02949
C         43.24189      113.21279       33.10843
N         42.01319      112.42786       33.00148
H         44.40064      118.01786       37.17656
H         45.53693      117.87552       34.39701
H         43.21958      117.01194       34.71173
H         43.75551      115.99355       36.09601
H         45.10585      114.58006       34.55302
H         44.62135      115.63689       33.16110
H         42.21786      115.05506       33.62592
H         42.73316      114.05011       35.03692
H         44.05405      112.56971       33.51590
H         43.54360      113.56772       32.09845
H         42.17973      111.61752       32.36283
H         41.73446      112.06666       33.94301
H         41.24364      113.01787       32.60921
N         46.93983      116.88111       37.21111
C         47.93379      116.01292       37.85641
C         47.38262      114.60703       37.98711
O         46.32659      114.42852       38.57813
C         48.29640      116.54561       39.26506
C         49.15496      115.60175       40.14456
C         50.44676      115.09267       39.53984
O         50.60398      113.89010       39.40224
O         51.45987      115.91908       39.20891
H         46.55720      117.66175       37.75628
H         48.86804      115.99712       37.25510
H         47.36316      116.74015       39.83827
H         48.80555      117.50975       39.14150
H         48.52832      114.72082       40.40668
H         49.38589      116.12479       41.09749
N         48.08373      113.54875       37.49876
C         47.63407      112.18606       37.67211
H         46.65636      112.04035       37.16797
H         48.37673      111.48520       37.23551
H         47.53281      111.95891       38.75581
H         48.98305      113.70893       37.02008
Ca        51.21630      118.13550       39.30274
O         54.19776      118.09193       38.18430
H         54.51936      117.35626       38.76383
H         54.22271      117.71597       37.26867
O         52.41738      121.01135       38.08329
H         51.61370      121.58488       38.00996
H         52.63617      120.76802       37.14887
O         54.10596      120.33447       40.67823
H         54.56477      121.00898       40.11679
H         53.78237      120.84395       41.46320
O         51.31573      117.72829       36.32122
H         51.08485      116.89565       36.80304
H         50.44231      118.15659       36.14121

Ca 1.0



