%chk=apoCaM-CA-Ng.loop2.water4.frame364.chk
%nprocshared=20
%mem=10GB
%nosave
#b3lyp/svp scf=(tight,noincore,xqc) Test 
#IOP(5/87=12) Density=Current Pop=(MK,readradii) iop(6/33=2) iop(6/42=6)

apoCaM-CA-Ng.loop2.water4.frame364 

   -2  1 
C         36.30521       90.95378       29.53735
C         35.75026       90.64879       28.17572
O         35.47558       91.58110       27.43415
H         37.25081       91.52603       29.43396
H         35.57345       91.56130       30.11029
H         36.51438       90.02693       30.10983
N         35.54962       89.35880       27.78125
C         34.99263       88.99000       26.48450
C         33.65473       88.30271       26.69411
O         33.47090       87.15328       26.31834
C         36.00597       88.17416       25.64651
C         36.42857       86.85961       26.24829
O         36.19515       85.81689       25.65814
O         37.11159       86.82288       27.40706
H         35.77812       88.60438       28.44375
H         34.77933       89.89851       25.87857
H         36.91633       88.79011       25.48103
H         35.54678       87.98535       24.65024
N         32.64914       89.01140       27.27490
C         31.29942       88.51331       27.49841
C         30.91478       88.71488       28.94692
O         31.13612       89.80587       29.45701
C         30.33439       89.31054       26.61839
H         32.84021       89.99242       27.53454
H         31.19367       87.44369       27.21152
H         29.29336       88.95312       26.77363
H         30.38021       90.39527       26.85673
H         30.59757       89.16951       25.54855
N         30.28669       87.73507       29.66368
C         29.82097       87.95246       31.03343
C         28.44483       88.62706       31.06301
O         27.57326       88.17494       31.79550
C         29.78609       86.61609       31.81278
C         31.13677       85.97967       31.90190
O         31.33221       84.87374       31.42408
O         32.13026       86.61787       32.54317
H         30.10412       86.82524       29.21288
H         30.53654       88.62842       31.55381
H         29.07380       85.92075       31.31456
H         29.43438       86.79002       32.85329
N         28.16843       89.72852       30.30550
C         26.90957       90.44033       30.38987
C         26.83414       91.33426       31.60963
O         25.79969       91.96365       31.78166
H         28.84358       90.08525       29.62504
H         26.06459       89.71886       30.35155
H         26.81548       91.11308       29.50961
N         27.89017       91.49429       32.46710
C         27.86852       92.41522       33.59755
C         28.91321       93.50994       33.38908
O         29.70469       93.42424       32.45828
C         28.09402       91.60468       34.89378
C         27.92947       92.41475       36.15456
N         28.94922       92.54517       37.03487
O         26.85662       92.95183       36.38857
H         28.76718       90.97687       32.30812
H         26.87659       92.91337       33.65615
H         29.10297       91.13776       34.85750
H         27.34407       90.78473       34.93426
H         29.86087       92.09785       36.86095
H         28.82721       93.09848       37.89610
N         28.92841       94.60612       34.19568
C         29.83926       95.72944       34.04058
C         30.61844       95.97106       35.30810
O         30.56798       95.15075       36.21650
H         28.22262       94.68669       34.94103
H         29.21991       96.62841       33.83538
H         30.54839       95.59909       33.19453
N         31.32921       97.12503       35.46336
C         32.01123       97.43778       36.71536
C         33.32781       96.67860       36.85809
O         33.87809       96.68899       37.94817
C         32.19628       98.96869       36.91786
C         33.20679       99.62440       35.96605
O         30.95247       99.62498       36.85492
H         31.29217       97.82498       34.70703
H         31.33545       97.12197       37.54335
H         32.59365       99.13257       37.94353
H         30.68934       99.70642       35.90122
H         32.92395       99.48356       34.90256
H         33.26854      100.71275       36.17730
H         34.21038       99.20034       36.14489
N         33.90185       96.02315       35.79968
C         35.16781       95.29541       35.88026
C         34.91904       93.85355       35.48786
O         34.41005       93.61850       34.40084
C         36.23216       95.91482       34.92527
C         36.44290       97.43246       35.14044
C         37.57393       95.16197       35.03251
C         36.90846       97.84125       36.54222
H         33.43950       96.04844       34.88010
H         35.57598       95.32972       36.91289
H         35.87230       95.80392       33.87742
H         35.49309       97.94855       34.90831
H         37.18999       97.79965       34.40397
H         37.97857       95.20746       36.06491
H         37.45190       94.09271       34.76063
H         38.31696       95.59977       34.33324
H         37.88959       97.38863       36.78846
H         37.01813       98.94522       36.58244
H         36.17135       97.55010       37.31365
N         35.25718       92.83378       36.32794
C         35.01434       91.43326       35.99131
C         35.19658       90.56343       37.23295
O         35.88843       89.55867       37.18925
C         35.94314       91.00674       34.82012
C         35.66509       89.63538       34.27242
O         34.64280       88.89197       34.73859
O         36.36286       89.19988       33.37069
H         35.66346       93.07147       37.24543
H         33.94532       91.34305       35.69559
H         36.99830       91.05589       35.16986
H         35.84162       91.70646       33.96654
N         34.60322       90.93927       38.39910
C         34.67867       90.21172       39.66515
C         36.10286       89.77567       40.00726
O         36.98673       90.62115       40.01974
C         34.07535       91.11223       40.77289
C         34.11505       90.51991       42.16088
C         35.31044       90.51924       42.90432
C         32.94841       89.99861       42.74256
C         35.33668       90.00054       44.20069
C         32.98123       89.47166       44.03699
C         34.17355       89.47401       44.76593
H         34.07546       91.82658       38.38984
H         34.03086       89.31872       39.58442
H         33.01791       91.30423       40.48444
H         34.58143       92.10317       40.80435
H         36.21941       90.93707       42.49260
H         32.01592       89.99350       42.19239
H         36.25823       90.01295       44.76855
H         32.08015       89.06535       44.47650
H         34.19523       89.07304       45.77056
N         36.39610       88.47478       40.34933
C         37.70415       88.03837       40.81339
C         38.65705       87.69951       39.67744
O         39.81436       87.42525       39.96553
C         37.37182       86.79151       41.64083
C         36.24941       86.17809       40.82488
C         35.41667       87.40919       40.47669
H         38.17457       88.80153       41.47227
H         38.23025       86.12033       41.85942
H         36.92758       87.11931       42.60891
H         36.69697       85.77495       39.88803
H         35.67777       85.36353       41.31798
H         34.84561       87.21849       39.54249
H         34.72716       87.66980       41.31007
N         38.25515       87.66635       38.37438
C         39.17686       87.38854       37.28098
C         40.20154       88.49963       37.20296
O         41.38873       88.22253       37.29772
C         38.45052       87.28655       35.92526
C         37.46259       86.11259       35.84329
C         36.86068       86.08233       34.47052
O         37.57313       85.93114       33.49040
O         35.54429       86.28887       34.30279
H         37.26748       87.83472       38.15302
H         39.68525       86.41320       37.45861
H         39.22279       87.14185       35.13635
H         37.90822       88.23280       35.70943
H         36.65558       86.23860       36.59606
H         37.98133       85.14900       36.03640
N         39.79654       89.79184       37.04027
C         40.70684       90.91358       36.95397
H         41.77018       90.60145       37.01462
H         40.54801       91.43815       35.98869
H         40.49706       91.61864       37.78517
H         38.78832       90.00055       36.98304
Ca        34.85817       86.73797       32.20536
O         34.80200       83.82501       31.78512
H         33.96632       84.29369       31.53697
H         34.80007       83.00939       31.22536
O         33.89235       86.67554       29.41769
H         34.64011       86.28915       28.89640
H         33.14649       86.03715       29.29269
O         33.73272       89.69188       31.83768
H         33.19834       89.72654       31.00693
H         33.18463       90.17101       32.50889
O         37.29284       87.49291       30.71690
H         38.20943       87.70268       30.40877
H         36.99467       86.75190       30.13207

Ca 1.0



