%chk=apoCaM-CA-Ng.loop2.water3.frame1440.chk
%nprocshared=20
%mem=10GB
%nosave
#b3lyp/svp scf=(tight,noincore,xqc) Test 
#IOP(5/87=12) Density=Current Pop=(MK,readradii) iop(6/33=2) iop(6/42=6)

apoCaM-CA-Ng.loop2.water3.frame1440 

   -2  1 
C         68.04620      103.86360       11.86658
C         67.38972      102.54724       11.53881
O         67.99096      101.52635       11.83897
H         69.02421      103.92875       11.34664
H         67.44467      104.74589       11.58085
H         68.22009      103.91353       12.96282
N         66.15968      102.43912       10.95334
C         65.32110      103.57014       10.55544
C         65.87815      104.37107        9.37470
O         65.31255      105.41223        9.06926
C         63.87956      103.09356       10.24761
C         63.74175      102.09794        9.11954
O         64.71159      101.69214        8.49833
O         62.51810      101.63646        8.80255
H         65.78590      101.48413       10.83514
H         65.23530      104.25039       11.43104
H         63.24863      103.97831       10.01400
H         63.46779      102.61904       11.16455
N         66.96399      103.95700        8.65740
C         67.53110      104.71046        7.53679
C         66.63273      104.77572        6.29567
O         67.07410      105.35151        5.30984
C         68.87181      104.07285        7.13313
H         67.43564      103.08454        8.93489
H         67.75364      105.74569        7.87744
H         68.71862      103.03163        6.77506
H         69.36304      104.65979        6.32729
H         69.56045      104.05417        8.00504
N         65.38703      104.21498        6.24123
C         64.60134      104.14856        5.00417
C         63.14613      103.69874        5.25556
O         62.77393      103.45245        6.39442
C         65.30480      103.16575        4.03631
C         65.42481      101.82253        4.68913
O         64.31649      101.27778        5.20354
O         66.49881      101.25096        4.78901
H         65.00375      103.77538        7.08161
H         64.53964      105.15915        4.54592
H         66.31371      103.52304        3.74149
H         64.71018      103.06063        3.10561
N         62.25868      103.58474        4.21943
C         60.86007      103.21509        4.41190
C         60.62721      101.72521        4.65267
O         61.25984      101.14341        5.52061
H         62.55705      103.86431        3.27323
H         60.28012      103.52203        3.51518
H         60.45160      103.80255        5.26206
N         59.63396      101.07560        3.96771
C         59.21977       99.69145        4.22289
C         60.22866       98.68138        3.70111
O         60.50339       98.67057        2.50906
C         57.85355       99.38334        3.56057
C         56.70939      100.13417        4.20598
N         55.69308       99.46026        4.79830
O         56.69271      101.35554        4.19125
H         59.07997      101.62648        3.29450
H         59.07291       99.54727        5.31591
H         57.65059       98.29430        3.66786
H         57.88887       99.61117        2.47274
H         55.67907       98.42972        4.82121
H         54.91161       99.96894        5.23773
N         60.77342       97.75967        4.54754
C         61.66399       96.68416        4.13433
C         63.04112       96.95327        4.74018
O         63.58438       98.06155        4.12656
H         60.53937       97.80860        5.55078
H         61.76011       96.62765        3.02811
H         61.23504       95.72769        4.49493
N         64.04952       95.88665        4.79400
C         63.93193       94.74543        3.87202
C         63.07074       93.66297        4.51669
O         62.82223       92.65020        3.87796
C         65.33511       94.14416        3.57224
C         66.24545       95.09233        2.77806
O         65.96385       93.79759        4.78154
H         65.00489       96.29490        4.90278
H         63.47577       95.06548        2.91031
H         65.18565       93.23593        2.94203
H         66.57613       93.04062        4.59060
H         67.21015       94.58324        2.56710
H         65.77111       95.35936        1.81111
H         66.47855       96.02376        3.33178
N         62.63335       93.78955        5.80608
C         61.93577       92.75645        6.55357
C         60.61326       93.32831        7.05709
O         60.64631       94.41148        7.62571
C         62.84004       92.33056        7.74577
C         64.14421       91.68782        7.20037
C         62.10275       91.36017        8.68733
C         65.20558       91.43162        8.26679
H         62.85709       94.63924        6.34271
H         61.79711       91.86646        5.92511
H         63.09754       93.24267        8.33021
H         64.61589       92.36929        6.46638
H         63.90282       90.73696        6.67494
H         62.73044       91.11919        9.56295
H         61.18470       91.82655        9.09889
H         61.82281       90.42609        8.15452
H         65.48751       92.38679        8.75724
H         64.85803       90.71676        9.03137
H         66.10755       90.99851        7.78513
N         59.40982       92.68421        6.97763
C         59.15892       91.34651        6.44293
C         58.77107       90.39609        7.57028
O         58.69443       90.81441        8.71813
C         58.10957       91.43492        5.31022
C         56.80175       92.04129        5.74487
O         56.40485       93.07308        5.22619
O         56.05632       91.44740        6.69566
H         58.59841       93.17053        7.39268
H         60.05115       90.89061        5.99557
H         57.91081       90.42983        4.88429
H         58.54087       92.05728        4.49415
N         58.52102       89.08353        7.30172
C         58.12234       88.10421        8.30882
C         58.93704       86.82550        8.14780
O         59.01834       86.35733        7.01914
C         56.61652       87.82895        8.11601
C         56.06095       86.93967        9.20244
C         56.28356       85.55127        9.18746
C         55.32625       87.50363       10.25963
C         55.78963       84.74713       10.21887
C         54.84200       86.69683       11.29216
C         55.07506       85.31995       11.27310
H         58.55015       88.77361        6.31846
H         58.22832       88.51907        9.33316
H         56.37961       87.41509        7.11118
H         56.11481       88.82020        8.17992
H         56.83950       85.08989        8.38156
H         55.14606       88.57088       10.29669
H         55.96726       83.67971       10.20427
H         54.29057       87.14141       12.11005
H         54.70219       84.69712       12.07530
N         59.48867       86.12716        9.19653
C         59.33625       86.42643       10.61784
C         60.15141       87.59497       11.10452
O         59.62040       88.45338       11.79526
C         59.84212       85.15285       11.32479
C         59.56554       84.08141       10.29334
C         60.03123       84.79123        9.03045
H         58.25732       86.54013       10.85444
H         60.95064       85.17498       11.43760
H         59.40601       84.98550       12.33330
H         60.06848       83.11163       10.49235
H         58.46937       83.91707       10.23298
H         61.14292       84.85552        9.03209
H         59.69037       84.26348        8.11445
N         61.48502       87.64438       10.83090
C         62.37819       88.60825       11.44841
C         62.51791       88.26077       12.93423
O         63.01201       87.17775       13.21280
C         63.74783       88.64630       10.71485
C         64.58214       87.34772       10.69156
C         65.81786       87.53136        9.85517
O         65.72362       87.80382        8.66830
O         67.03675       87.37910       10.40669
H         61.87108       86.94519       10.18249
H         61.95339       89.60985       11.27610
H         64.36671       89.45539       11.16228
H         63.52900       88.91452        9.65929
H         64.00680       86.50715       10.25461
H         64.89346       87.06858       11.71729
N         62.09607       89.04513       13.97153
C         61.41844       90.32297       13.88869
H         60.43116       90.23391       14.39011
H         62.01701       91.08812       14.42412
H         61.23523       90.68255       12.86621
H         62.24880       88.68715       14.92799
Ca        64.15590       99.23385        5.92162
O         62.62695       98.22324        8.95562
H         62.52512       97.29955        9.29722
H         62.13947       98.78389        9.61033
O         66.04332       97.88881        7.96154
H         65.26325       97.31232        7.76139
H         66.42629       98.10549        7.07426
O         60.24513       99.86478        7.91811
H         59.65678      100.64113        7.74084
H         59.68237       99.07371        7.72583

Ca 1.0



