%chk=apoCaM-CA-Ng.loop1.water3.frame1320.chk
%nprocshared=20
%mem=10GB
%nosave
#b3lyp/svp scf=(tight,noincore,xqc) Test 
#IOP(5/87=12) Density=Current Pop=(MK,readradii) iop(6/33=2) iop(6/42=6)

apoCaM-CA-Ng.loop1.water3.frame1320 

   0  1 
C         37.87767       23.59250       80.45235
C         39.02221       24.04484       81.32148
O         39.32552       25.22802       81.30680
H         37.02190       24.29029       80.57684
H         38.16332       23.56973       79.38106
H         37.52447       22.58231       80.74674
N         39.66847       23.14902       82.13241
C         40.68605       23.47227       83.14986
C         42.08343       23.69352       82.57733
O         43.07447       23.30058       83.17841
C         40.60603       22.41964       84.28453
C         40.85944       20.98976       83.85700
O         40.47721       19.99162       84.67470
O         41.36223       20.71791       82.77621
H         39.33120       22.17876       82.07993
H         40.40744       24.40713       83.65081
H         39.56493       22.46883       84.67037
H         41.25121       22.67568       85.15035
N         42.21613       24.29991       81.37456
C         43.44618       24.44834       80.63881
C         44.38568       25.45216       81.25679
O         45.52860       25.08327       81.47733
C         43.11851       24.78046       79.17200
C         42.31482       23.61799       78.54316
C         41.76522       23.93453       77.18379
C         41.02644       22.70568       76.64348
N         40.78887       22.91443       75.22495
H         41.38285       24.57718       80.87346
H         43.96234       23.46594       80.67067
H         44.08371       24.95148       78.65748
H         42.52634       25.70672       79.06836
H         41.41444       23.32439       79.12546
H         42.99060       22.74861       78.45010
H         42.59162       24.20261       76.49671
H         41.03815       24.78514       77.24866
H         40.06766       22.57658       77.19789
H         41.57902       21.74542       76.79236
H         41.66316       22.71028       74.68036
H         39.98890       22.31858       74.92506
H         40.54808       23.91631       75.06615
N         44.04569       26.71151       81.62696
C         42.76024       27.36159       81.44970
C         41.94185       27.30106       82.70893
O         42.42068       26.92196       83.76432
C         42.97258       28.80273       80.96546
C         43.93931       29.49729       81.86379
O         43.70084       29.61948       83.17831
O         45.00318       29.86556       81.39736
H         44.76286       27.22105       82.15584
H         42.13370       26.84401       80.71354
H         42.01137       29.35310       80.92064
H         43.42248       28.80472       79.94636
N         40.61414       27.52827       82.58131
C         39.63737       27.31728       83.60748
C         39.49502       28.48841       84.53378
O         40.58881       29.30750       84.80502
H         40.25391       27.71041       81.64023
H         39.81907       26.37380       84.14440
H         38.63762       27.27693       83.11182
N         38.46878       28.29054       85.53676
C         38.28681       29.17754       86.68061
C         36.84828       29.00729       87.16256
O         36.17514       28.07440       86.73561
C         39.38058       28.93214       87.75002
C         39.53631       27.48791       88.09839
O         40.44005       26.82408       87.61059
O         38.69946       26.93205       88.98868
H         37.90765       27.41363       85.43881
H         38.38535       30.21373       86.31939
H         39.17367       29.49272       88.67701
H         40.36835       29.30151       87.39504
N         36.22116       29.89580       87.97035
C         36.78386       31.08410       88.59242
C         37.34276       32.10756       87.61204
O         36.68523       32.43662       86.63644
H         35.22519       29.69941       88.15069
H         37.53710       30.78339       89.34860
H         35.95949       31.57749       89.14598
N         38.53992       32.70742       87.86802
C         39.16767       33.71171       87.00391
C         39.73155       33.10619       85.73536
O         40.39138       32.08803       85.77747
C         40.25778       34.48994       87.76542
C         39.63022       35.26282       88.92243
O         40.89250       35.39937       86.90352
H         38.98571       32.49045       88.77237
H         38.42789       34.48552       86.71490
H         40.99883       33.76915       88.16899
H         41.69136       35.73152       87.39123
H         40.42238       35.81141       89.46658
H         38.86368       35.98991       88.56162
H         39.16531       34.53903       89.61423
N         39.55303       33.77576       84.57029
C         40.06413       33.40852       83.26338
C         41.64610       33.31027       83.32804
O         42.17783       31.99941       83.41364
C         39.31946       32.18786       82.62488
C         37.76850       32.17445       82.85834
C         39.65094       32.20730       81.12580
C         37.02082       33.29165       82.12674
H         39.05408       34.67562       84.62489
H         39.78090       34.29083       82.63023
H         39.69267       31.25775       83.09934
H         37.54077       32.25030       83.94175
H         37.33438       31.18561       82.56478
H         39.00306       31.52833       80.53858
H         39.50787       33.23645       80.72182
H         40.71825       31.95745       80.98629
H         36.07620       33.54678       82.64479
H         37.62181       34.21571       82.11508
H         36.78117       32.97716       81.08702
N         42.30305       34.07359       82.24737
C         43.75494       33.85092       82.00531
C         44.63851       35.03702       82.31696
O         45.80693       34.95144       81.96488
C         43.96642       33.35540       80.54920
C         43.53339       34.30767       79.46133
O         43.21248       32.21078       80.35049
H         41.95530       35.05582       82.14846
H         44.17351       33.04749       82.66295
H         45.05982       33.13398       80.38706
H         43.82526       31.51213       80.60305
H         44.12582       35.23894       79.50042
H         43.68288       33.79663       78.48070
H         42.45030       34.51185       79.57328
N         44.20136       36.14149       83.00305
C         45.11773       37.16771       83.47031
C         45.87950       36.59049       84.64296
O         45.45133       36.69046       85.78702
C         44.40280       38.49754       83.82061
C         45.37727       39.62444       84.14496
O         43.61283       38.89662       82.73426
H         43.22604       36.21938       83.30636
H         45.81178       37.39630       82.62929
H         43.77090       38.36749       84.72930
H         42.72704       39.13307       83.11524
H         44.80249       40.56134       84.28742
H         45.89846       39.39890       85.09405
H         46.10829       39.78692       83.32295
N         47.01739       35.90372       84.38022
C         47.84629       35.20413       85.34032
C         47.20475       33.88945       85.69154
O         46.00769       33.80424       85.56595
C         48.27029       36.06328       86.54827
C         48.63527       37.51708       86.17182
C         49.34052       38.25392       87.32048
C         49.91050       39.57636       86.81194
N         50.89115       40.09723       87.76852
H         47.30897       35.82291       83.40256
H         48.77536       34.93015       84.79792
H         49.15954       35.54862       86.96291
H         47.48381       36.08427       87.32774
H         47.74046       38.10136       85.86235
H         49.32627       37.48796       85.30472
H         50.18329       37.62695       87.68490
H         48.67265       38.46405       88.18542
H         49.07421       40.29336       86.62353
H         50.42817       39.39321       85.84733
H         51.71223       39.44873       87.80525
H         51.27025       41.01883       87.45939
H         50.46052       40.17933       88.71815
N         47.94830       32.78325       85.96715
C         47.40561       31.43256       86.19012
C         46.46809       31.00114       85.05491
O         45.30348       30.74472       85.33843
C         48.57848       30.42306       86.41138
C         49.19484       30.54714       87.81815
C         50.54940       29.88694       87.96478
O         51.60246       30.62535       88.36784
O         50.69770       28.68902       87.77460
H         48.96711       32.91874       85.97371
H         46.78312       31.42856       87.11464
H         49.36744       30.60475       85.65143
H         48.22585       29.37952       86.31461
H         48.51163       30.10628       88.57705
H         49.29074       31.62283       88.04510
N         46.83189       30.90779       83.75068
C         48.13020       31.18174       83.19600
H         48.88025       30.47338       83.58382
H         48.09230       31.04107       82.09295
H         48.41229       32.22832       83.40486
H         46.11147       30.64059       83.09277
Ca        42.37850       30.60672       85.27411
O         43.29045       28.05988       86.18652
H         43.32167       27.51189       87.00631
H         43.74811       27.49376       85.52158
O         43.31762       32.91939       86.65956
H         44.24301       32.93766       86.36319
H         43.20710       33.80514       87.07174
O         42.78199       30.47816       88.12810
H         43.51208       31.11029       88.34154
H         42.27814       30.39268       88.97414

Ca 1.0



