%chk=apoCaM-CA-Ng.loop1.water1.frame842.chk
%nprocshared=20
%mem=10GB
%nosave
#b3lyp/svp scf=(tight,noincore,xqc) Test 
#IOP(5/87=12) Density=Current Pop=(MK,readradii) iop(6/33=2) iop(6/42=6)

apoCaM-CA-Ng.loop1.water1.frame842 

   0  1 
C         49.11458        4.76090       94.09370
C         48.20073        5.18990       92.98700
O         47.07654        4.70954       92.94188
H         50.09695        5.27295       94.03263
H         48.64434        5.00166       95.06993
H         49.27915        3.66440       94.03039
N         48.60804        6.09647       92.05059
C         47.73713        6.53470       90.96097
C         47.30356        5.36112       90.08283
O         47.79041        4.25365       90.26404
C         48.37029        7.70605       90.17354
C         49.72622        7.39517       89.60708
O         50.79731        8.11551       89.99435
O         49.86639        6.49952       88.79471
H         49.55471        6.49761       92.13402
H         46.80814        6.93714       91.42231
H         48.48242        8.56471       90.87240
H         47.69222        8.03102       89.35609
N         46.29598        5.52606       89.17921
C         45.55315        4.40487       88.60322
C         46.13224        4.00740       87.25253
O         45.56993        4.33384       86.21907
C         44.03851        4.75965       88.63432
C         43.05476        3.57806       88.46705
C         42.97623        2.95236       87.06776
C         42.48617        3.92072       85.96926
N         41.08939        4.31778       86.15859
H         45.87885        6.46726       89.10436
H         45.63343        3.52399       89.28012
H         43.80553        5.59752       87.94505
H         43.83754        5.13362       89.66408
H         42.04022        3.92779       88.75029
H         43.32794        2.78726       89.19948
H         42.28348        2.08378       87.10451
H         43.96941        2.54506       86.80279
H         42.57387        3.40801       84.99036
H         43.12622        4.82359       85.91163
H         40.79679        4.91775       85.35389
H         40.47558        3.47099       86.18303
H         40.97114        4.87088       87.03602
N         47.27116        3.25877       87.20924
C         47.91460        2.77899       85.98398
C         49.09588        1.86992       86.32246
O         49.88645        2.24249       87.17031
C         48.32686        3.91742       85.01848
C         48.79311        5.22094       85.62932
O         48.11597        6.21638       85.42305
O         49.92055        5.37654       86.35554
H         47.69114        2.98761       88.11002
H         47.18434        2.18237       85.41200
H         47.40891        4.17232       84.44119
H         49.05001        3.53663       84.26457
N         49.31885        0.65871       85.72395
C         48.50690        0.07977       84.66745
C         47.12554       -0.27496       85.14373
O         46.94753       -0.55742       86.32059
H         50.15445        0.12392       86.00955
H         48.97481       -0.86018       84.31116
H         48.46826        0.77521       83.80040
N         46.09197       -0.28387       84.25881
C         44.71984       -0.57794       84.63689
C         44.32189       -1.88183       83.99133
O         44.36281       -1.98136       82.77176
C         43.80125        0.57429       84.18307
C         42.36354        0.40353       84.61190
O         41.97749       -0.63848       85.37421
O         41.53226        1.22829       84.27039
H         46.28874       -0.08040       83.26552
H         44.63449       -0.67091       85.74201
H         43.83859        0.65524       83.07434
H         44.18088        1.52885       84.60545
N         43.93497       -2.94128       84.75598
C         43.57762       -4.21894       84.16860
C         44.75972       -4.92550       83.53059
O         44.53747       -5.93810       82.88129
H         43.87424       -2.83739       85.78055
H         42.77853       -4.04679       83.41655
H         43.16923       -4.89197       84.95393
N         46.04475       -4.50674       83.73045
C         47.21640       -5.21594       83.22664
C         48.23537       -4.24045       82.63338
O         47.95557       -3.05019       82.55005
C         47.79033       -6.11187       84.36235
C         48.21995       -5.33263       85.60554
O         46.82298       -7.05458       84.74785
H         46.22054       -3.71300       84.36417
H         46.93280       -5.91292       82.40674
H         48.68709       -6.66322       84.00517
H         46.78126       -7.73695       84.02649
H         48.63904       -6.03785       86.35424
H         48.99931       -4.59276       85.35331
H         47.35685       -4.81190       86.06912
N         49.45668       -4.68734       82.21773
C         50.50028       -3.83574       81.64010
C         51.03136       -4.36583       80.30792
O         51.67061       -3.59605       79.60606
C         51.68284       -3.64171       82.63919
C         52.23660       -5.00786       83.13407
C         51.24225       -2.73755       83.80054
C         53.45511       -4.89651       84.04814
H         49.66852       -5.68014       82.36586
H         50.07414       -2.83245       81.41054
H         52.49748       -3.09339       82.11460
H         52.53664       -5.61464       82.25287
H         51.45465       -5.56414       83.69332
H         50.41992       -3.19558       84.37804
H         52.08379       -2.51445       84.48539
H         50.89829       -1.76307       83.39641
H         53.20204       -4.37664       84.99422
H         53.80219       -5.91746       84.31496
H         54.27861       -4.36088       83.53268
N         50.86704       -5.66436       79.91525
C         51.36811       -6.19912       78.65675
C         52.44413       -7.23086       78.93008
O         52.24030       -8.11767       79.74714
C         50.21623       -6.85154       77.86425
C         49.13415       -5.82872       77.51027
O         50.72996       -7.40311       76.67735
H         50.38655       -6.33443       80.52536
H         51.79905       -5.39859       78.01500
H         49.77034       -7.65796       78.49452
H         50.10412       -8.12031       76.39559
H         48.32106       -6.32775       76.94258
H         48.69733       -5.38426       78.42888
H         49.56294       -5.01841       76.88231
N         53.58710       -7.21786       78.18795
C         54.59673       -8.26509       78.25934
C         55.99873       -7.67757       78.16116
O         56.83069       -7.99044       79.00162
C         54.32227       -9.30702       77.14181
C         55.24293      -10.52984       77.25124
O         54.44977       -8.72321       75.87085
H         53.65428       -6.52302       77.43135
H         54.50592       -8.82361       79.21871
H         53.27398       -9.66386       77.28467
H         53.91106       -9.27341       75.24374
H         56.30692      -10.24427       77.11620
H         55.11934      -11.01386       78.24414
H         54.97428      -11.27419       76.47129
N         56.33660       -6.85398       77.12611
C         57.69545       -6.43093       76.82179
C         57.83402       -4.92062       76.89492
O         56.99958       -4.21392       76.34469
C         58.00742       -6.93789       75.40230
C         59.48127       -6.77283       75.00604
C         59.77131       -7.29040       73.58335
C         59.36695       -8.75655       73.31672
N         60.01800       -9.69717       74.22979
H         55.60896       -6.56654       76.45551
H         58.42321       -6.90600       77.51648
H         57.35125       -6.42650       74.66245
H         57.76639       -8.02116       75.39149
H         60.11682       -7.31599       75.73739
H         59.76587       -5.69923       75.04371
H         60.85965       -7.17411       73.38983
H         59.22727       -6.65236       72.85321
H         59.64840       -9.00976       72.27102
H         58.26389       -8.87317       73.38702
H         59.73754      -10.66997       73.96806
H         61.05706       -9.61079       74.15757
H         59.71221       -9.52865       75.21455
N         58.93039       -4.36027       77.48418
C         59.18098       -2.92216       77.47045
C         58.31150       -2.18883       78.48467
O         57.54098       -1.34487       78.04996
C         60.68253       -2.58206       77.64303
C         61.52882       -3.17176       76.50177
C         62.97657       -2.80931       76.66174
O         63.54691       -2.15953       75.80006
O         63.65802       -3.21396       77.75078
H         59.66187       -4.99081       77.84566
H         58.92876       -2.53535       76.45517
H         61.08166       -2.93733       78.61109
H         60.79701       -1.47494       77.61900
H         61.15353       -2.78244       75.52904
H         61.44849       -4.27853       76.48924
N         58.35072       -2.38749       79.83804
C         59.16381       -3.35431       80.54870
H         59.86046       -2.81992       81.22912
H         58.50379       -4.00617       81.15702
H         59.74757       -4.01520       79.89246
H         57.74305       -1.79643       80.42681
Ca        51.66662        4.15274       87.11457
O         50.40268        2.46085       90.29952
H         50.11775        2.40784       91.24643
H         51.13847        1.80244       90.22371

Ca 1.0



