%chk=apoCaM-CA-Ng.loop3.water5.frame1098.chk
%nprocshared=20
%mem=10GB
%nosave
#b3lyp/svp scf=(tight,noincore,xqc) Test 
#IOP(5/87=12) Density=Current Pop=(MK,readradii) iop(6/33=2) iop(6/42=6)

apoCaM-CA-Ng.loop3.water5.frame1098 

   0  1 
C         56.52225       90.99746       46.08135
C         57.98698       91.30990       46.15375
O         58.35814       92.46559       46.01204
H         55.92897       91.91888       45.89938
H         56.33187       90.27558       45.26029
H         56.19472       90.55033       47.04406
N         58.87972       90.30920       46.39063
C         60.31626       90.52296       46.53807
C         61.13907       89.78754       45.49066
O         62.35488       89.86715       45.57945
C         60.76594       90.16586       47.97432
C         60.57342       88.73179       48.39917
O         60.96019       88.35944       49.63359
O         60.07815       87.90204       47.65438
H         58.50983       89.35332       46.49677
H         60.56308       91.60011       46.40846
H         60.20948       90.81400       48.68468
H         61.84627       90.40989       48.07766
N         60.57759       89.10991       44.44070
C         61.36944       88.49770       43.37173
C         62.22008       89.53990       42.64396
O         63.19440       89.16208       42.00663
C         62.24005       87.32884       43.89956
C         61.39160       86.20857       44.52030
C         62.23306       84.99459       44.95944
C         63.26914       85.27349       46.06657
N         62.64604       85.74386       47.30339
H         59.55277       89.06031       44.35097
H         60.68298       88.05683       42.61543
H         62.97792       87.70525       44.63379
H         62.80333       86.88856       43.04670
H         60.66837       85.85270       43.75391
H         60.80470       86.59655       45.37695
H         62.76895       84.59150       44.07235
H         61.54011       84.20411       45.32051
H         64.02630       86.01090       45.72473
H         63.80796       84.32347       46.27669
H         63.37652       85.82455       48.04669
H         62.23119       86.68876       47.15617
H         61.91197       85.06976       47.62131
N         61.88406       90.86719       42.65441
C         62.69272       91.90410       42.01888
C         63.07126       92.96456       43.05247
O         62.90882       94.15365       42.81565
C         61.93337       92.43962       40.77913
C         60.60754       93.11260       41.08617
O         59.68688       93.29368       40.12094
O         60.32830       93.46564       42.22001
H         61.01688       91.16265       43.12453
H         63.64626       91.46407       41.65224
H         61.74356       91.56290       40.12425
H         62.57013       93.14204       40.19795
N         63.55015       92.56857       44.26313
C         63.90161       93.48738       45.33934
C         64.21010       92.69114       46.59867
O         65.01813       91.77847       46.49997
H         63.64087       91.55712       44.42598
H         63.06868       94.19413       45.50482
H         64.79321       94.07239       45.03089
N         63.62701       92.90634       47.81862
C         62.85538       94.08306       48.21550
C         62.03382       93.75918       49.46473
O         62.62625       93.34738       50.45423
C         63.86012       95.21666       48.52453
C         63.21008       96.46380       49.07110
N         63.52319       96.91372       50.31080
O         62.40082       97.07505       48.39049
H         63.91226       92.26352       48.57553
H         62.17358       94.40267       47.41007
H         64.42248       95.47890       47.60292
H         64.59765       94.83750       49.26695
H         64.20393       96.41255       50.90140
H         63.08344       97.76605       50.68773
N         60.67832       93.91994       49.54232
C         59.85322       94.46585       48.46735
C         58.38161       94.56190       48.83717
O         57.99068       94.12085       49.90704
H         60.23477       93.66568       50.43743
H         59.94538       93.83526       47.56113
H         60.21077       95.49206       48.23946
N         57.50767       95.18923       47.99073
C         56.09671       95.38940       48.32399
C         55.18203       94.96448       47.17781
O         55.61899       94.91223       46.03837
C         55.90547       96.87466       48.69512
C         54.54235       97.21676       49.24616
C         53.74873       98.19225       48.62076
C         54.06761       96.59262       50.41349
C         52.50202       98.53565       49.15249
C         52.81890       96.93340       50.93969
C         52.03241       97.90894       50.31143
O         50.83051       98.25548       50.81438
H         57.87668       95.61307       47.12670
H         55.83987       94.77367       49.21058
H         56.14341       97.50132       47.80707
H         56.64297       97.13110       49.48773
H         54.09781       98.69639       47.72836
H         54.66428       95.84612       50.92182
H         51.90316       99.29508       48.66603
H         52.46771       96.44363       51.83925
H         50.47342       97.85119       51.61807
N         53.88575       94.61419       47.43467
C         52.94655       94.19049       46.39368
C         52.65117       95.30811       45.40058
O         52.14718       96.35098       45.78342
C         51.60468       93.61668       46.96623
C         51.83262       92.18454       47.51013
C         50.91477       94.53122       48.00736
C         50.53828       91.46496       47.89723
H         53.58465       94.61257       48.41567
H         53.41614       93.35961       45.82403
H         50.91296       93.50561       46.09940
H         52.52977       92.19650       48.37421
H         52.29455       91.57679       46.69982
H         50.75519       95.55368       47.61719
H         49.91214       94.13806       48.26872
H         51.49389       94.59728       48.95055
H         49.83210       91.45080       47.03861
H         50.76931       90.41564       48.17659
H         50.05224       91.94901       48.76739
N         52.92841       95.11348       44.07539
C         52.59051       96.08057       43.02735
C         53.23107       95.70664       41.69017
O         53.84231       94.65747       41.57470
C         51.05925       96.17241       42.86388
O         50.54629       94.91989       42.49488
H         53.39315       94.23474       43.81457
H         53.00848       97.06929       43.31594
H         50.80598       96.92410       42.08395
H         50.59033       96.49589       43.81733
H         49.57025       95.04344       42.36617
N         53.14483       96.56859       40.62987
C         53.80253       96.34097       39.34539
C         53.25692       95.14243       38.57654
O         53.86490       94.79120       37.57476
C         55.32867       96.26074       39.53267
H         52.63544       97.45507       40.74867
H         53.62691       97.22951       38.69820
H         55.83549       96.20431       38.54579
H         55.68972       97.17683       40.04757
H         55.63770       95.37558       40.12251
N         52.09060       94.51093       38.92272
C         51.50871       93.40625       38.16215
C         52.39155       92.17972       38.24996
O         53.00174       91.78879       37.26385
C         51.19364       93.82086       36.71229
H         51.55630       94.84370       39.73787
H         50.52756       93.13195       38.61032
H         50.51584       94.70008       36.71156
H         52.10105       94.07193       36.12856
H         50.68163       92.98517       36.18869
N         52.46116       91.49180       39.42450
C         53.28974       90.31016       39.60521
C         52.45459       89.06284       39.38374
O         52.79180       88.27940       38.50667
C         53.92820       90.34166       41.01270
C         55.01832       89.27715       41.21020
C         56.22289       89.57410       40.36064
O         56.89540       90.72957       40.53120
O         56.60082       88.77386       39.52073
H         51.86182       91.79457       40.20840
H         54.11076       90.32145       38.85455
H         53.13309       90.19989       41.77650
H         54.38315       91.33994       41.19601
H         54.61145       88.26696       40.98605
H         55.34693       89.28844       42.27129
N         51.33575       88.82698       40.12771
C         50.48295       87.66789       39.94611
H         49.45990       88.00343       39.67386
H         50.84952       86.98908       39.14736
H         50.43063       87.09504       40.89529
H         51.05823       89.50530       40.85221
Ca        59.46656       91.82644       38.42550
O         55.95545       92.30849       38.15412
H         55.94786       93.15855       38.66093
H         55.68272       92.56267       37.23719
O         59.68531       89.57862       40.57138
H         60.56782       89.46924       40.13749
H         59.27207       88.68133       40.51371
O         57.69659       90.83157       35.87683
H         58.21957       90.68428       35.04914
H         56.75793       90.89731       35.56904
O         60.17759       89.33568       37.15223
H         60.54166       89.47806       36.24281
H         60.92517       88.93396       37.66154
O         59.17302       93.87852       36.52154
H         58.90981       94.81401       36.33896
H         60.09637       93.94378       36.87471

Ca 1.0



