%chk=apoCaM-CA-Ng.loop4.water3.frame51.chk
%nprocshared=20
%mem=10GB
%nosave
#b3lyp/svp scf=(tight,noincore,xqc) Test 
#IOP(5/87=12) Density=Current Pop=(MK,readradii) iop(6/33=2) iop(6/42=6)

apoCaM-CA-Ng.loop4.water3.frame51 

   -3  1 
C         43.19673       54.24064       43.45504
C         42.34061       54.30109       42.22416
O         41.93247       55.38774       41.87216
H         44.11644       54.84347       43.29361
H         42.63754       54.66417       44.31565
H         43.49411       53.20015       43.69805
N         42.04088       53.17253       41.52066
C         41.25949       53.09049       40.28153
C         41.93787       53.77564       39.06190
O         41.47716       55.04902       38.69419
C         39.74154       53.33475       40.47924
C         39.32596       54.65414       41.06900
O         39.50649       55.69704       40.46619
O         38.70187       54.68175       42.26305
H         42.42335       52.28207       41.87386
H         41.30204       52.01991       39.97996
H         39.38093       52.54527       41.17379
H         39.21587       53.19066       39.51093
N         43.39951       53.57326       39.04435
C         44.21116       53.92774       37.85312
C         43.57020       53.57647       36.50641
O         44.04584       52.64347       35.87305
C         44.78501       55.36440       37.97283
C         45.67923       55.76509       36.76720
C         45.57271       55.50309       39.29424
C         46.85139       54.82652       36.47158
H         43.54467       52.54839       39.20685
H         45.11108       53.27206       37.91934
H         43.94608       56.08732       38.01117
H         46.08850       56.78224       36.94411
H         45.05657       55.80956       35.85344
H         46.41941       54.78600       39.33784
H         45.97936       56.52575       39.40325
H         44.91732       55.31118       40.16988
H         47.40046       55.20369       35.58571
H         47.55060       54.77267       37.32931
H         46.49904       53.80882       36.21515
N         42.51553       54.26757       35.99032
C         41.85527       53.88975       34.74608
C         42.60690       54.36865       33.49525
O         42.94326       53.49426       32.70828
C         40.35719       54.24793       34.78602
C         39.62086       53.44422       35.82677
O         38.96768       54.06390       36.82662
O         39.59089       52.22549       35.75578
H         42.13372       55.06447       36.50876
H         41.84396       52.77594       34.67687
H         39.89673       54.01969       33.79980
H         40.21720       55.31250       35.02596
N         42.96881       55.65703       33.18985
C         42.78259       56.84954       33.99732
C         41.37385       57.40706       33.97348
O         40.52129       56.83936       33.30662
H         43.52662       55.78876       32.33072
H         43.43702       57.64986       33.58883
H         43.12708       56.62714       35.01630
N         41.02713       58.54897       34.64628
C         41.97209       59.44102       35.32374
C         42.79436       58.74847       36.39986
O         42.29827       57.80143       36.99178
C         41.25832       60.68788       35.89653
C         40.22475       60.35704       36.94324
O         39.05296       60.64281       36.75607
O         40.58589       59.77297       38.10174
H         40.03749       58.83937       34.60183
H         42.66072       59.78255       34.52555
H         40.76667       61.22253       35.05450
H         41.99952       61.38220       36.34638
N         44.09182       59.09103       36.67082
C         44.80620       60.22055       36.09156
C         45.88606       59.77229       35.14086
O         46.10019       58.57918       34.96849
H         44.61843       58.50666       37.33350
H         45.24242       60.83497       36.90852
H         44.13603       60.89207       35.52915
N         46.57868       60.70636       34.42909
C         47.57014       60.35058       33.42030
C         48.85302       59.78394       34.01889
O         49.69414       59.35060       33.24840
C         47.95172       61.57550       32.55741
C         46.76572       62.14701       31.75899
C         47.17169       63.29666       30.86393
N         46.25066       63.88994       30.07095
O         48.32782       63.69551       30.84276
H         46.33405       61.69936       34.57015
H         47.12225       59.58560       32.74553
H         48.72328       61.26127       31.81968
H         48.38687       62.36719       33.20807
H         45.97264       62.50447       32.44850
H         46.34244       61.34252       31.11954
H         45.27193       63.56799       30.06985
H         46.51808       64.67052       29.45275
N         49.09583       59.79637       35.36433
C         50.36051       59.34096       35.94540
C         51.11114       60.47811       36.62479
O         52.22430       60.22175       37.07596
C         50.13686       58.14484       36.90804
C         49.64636       56.92199       36.12837
C         49.16573       58.46827       38.05504
H         48.38750       60.17509       36.00278
H         51.04806       58.98802       35.14591
H         51.11850       57.86861       37.35448
H         50.37872       56.65002       35.33801
H         49.54597       56.05200       36.81004
H         48.66858       57.13437       35.64888
H         49.52363       59.34362       38.63609
H         48.14810       58.68109       37.66803
H         49.08912       57.60127       38.74502
N         50.62149       61.75084       36.70785
C         51.38497       62.86009       37.26474
C         50.74437       63.46598       38.50717
O         51.43791       63.54924       39.51000
C         51.73241       63.92529       36.18860
C         50.62351       64.59570       35.40279
N         50.93764       65.58279       34.53222
O         49.45792       64.26127       35.52111
H         49.68662       61.96181       36.33231
H         52.38697       62.50320       37.59867
H         52.40089       63.44848       35.43866
H         52.31828       64.72286       36.69702
H         51.91491       65.88636       34.41090
H         50.20112       66.05355       33.98565
N         49.46719       63.95391       38.52237
C         48.94079       64.73281       39.63971
C         47.70892       64.12179       40.26952
O         46.86227       63.58279       39.57220
C         48.57167       66.14832       39.15951
C         49.75878       66.92455       38.65037
C         49.78538       67.39637       37.32837
C         50.83897       67.20951       39.50330
C         50.87433       68.14194       36.86795
C         51.92663       67.95288       39.04068
C         51.94660       68.42441       37.72074
O         52.98526       69.15243       37.26472
H         48.86129       63.83246       37.70503
H         49.70151       64.84135       40.44088
H         48.14218       66.72560       40.00707
H         47.78779       66.06806       38.37314
H         48.96185       67.19402       36.65485
H         50.83809       66.86459       40.52948
H         50.88113       68.50508       35.84822
H         52.74914       68.16648       39.71154
H         53.73991       69.37823       37.82717
N         47.49256       64.35564       41.60035
C         46.29970       64.03132       42.37936
C         46.17564       62.57040       42.76252
O         45.55103       62.29980       43.77998
C         44.99312       64.57008       41.75927
C         45.08000       66.06949       41.43879
C         43.77390       66.59024       40.91492
O         43.29354       66.13426       39.88926
O         43.13238       67.57676       41.56961
H         48.20907       64.90017       42.10508
H         46.43513       64.55793       43.35276
H         44.16529       64.40249       42.48366
H         44.74878       64.00784       40.83242
H         45.86029       66.25007       40.67096
H         45.35327       66.62890       42.35911
N         46.69950       61.56746       42.00871
C         46.57782       60.16967       42.39011
C         47.48959       59.86402       43.55813
O         47.12401       59.06239       44.40675
C         46.87479       59.23390       41.20182
C         46.05098       59.55060       39.93284
C         44.56724       59.61500       40.16540
O         43.83574       58.81195       39.62435
O         44.02490       60.59672       40.91079
H         47.17836       61.78579       41.13092
H         45.52902       59.95740       42.69214
H         46.65602       58.19035       41.52314
H         47.95026       59.29070       40.92778
H         46.27843       58.76595       39.18363
H         46.36120       60.51535       39.48448
N         48.69572       60.48839       43.67309
C         49.59055       60.24578       44.78090
H         50.49330       60.88582       44.68052
H         49.08579       60.49442       45.73868
H         49.90435       59.18140       44.78601
H         48.98914       61.17329       42.96003
Ca        42.01160       56.93461       39.83633
O         40.77866       59.66080       41.87749
H         40.47360       60.36292       41.24943
H         41.66379       59.38622       41.53062
O         38.97550       57.01433       37.86448
H         39.53530       56.61537       37.15296
H         38.04464       56.79819       37.60530
O         38.35234       58.59060       40.23401
H         38.06423       58.77505       41.16277
H         38.36797       59.47839       39.79605

Ca 1.0



