%chk=apoCaM-CA-Ng.loop4.water5.frame931.chk
%nprocshared=20
%mem=10GB
%nosave
#b3lyp/svp scf=(tight,noincore,xqc) Test 
#IOP(5/87=12) Density=Current Pop=(MK,readradii) iop(6/33=2) iop(6/42=6)

apoCaM-CA-Ng.loop4.water5.frame931 

   -3  1 
C        -23.00292       -8.40293        1.47718
C        -24.27679       -9.17919        1.60396
O        -25.23352       -8.88097        0.90458
H        -22.18305       -9.08499        1.16739
H        -23.10481       -7.60409        0.71277
H        -22.74699       -7.94585        2.45564
N        -24.34311      -10.22746        2.47067
C        -25.51098      -11.08572        2.63697
C        -25.88329      -11.70940        1.30206
O        -27.02799      -11.62590        0.87580
C        -26.68282      -10.31734        3.28976
C        -26.29309       -9.75838        4.63102
O        -25.89905      -10.58419        5.61898
O        -26.33897       -8.55611        4.83513
H        -23.50055      -10.46214        3.01838
H        -25.22771      -11.91629        3.32173
H        -27.54230      -11.00580        3.43825
H        -27.01716       -9.49337        2.62370
N        -24.91574      -12.31118        0.55713
C        -25.17086      -12.87833       -0.76070
C        -25.93049      -14.19041       -0.57664
O        -25.40284      -15.03819        0.13031
C        -23.83230      -13.11008       -1.53327
C        -23.08478      -11.75544       -1.71946
C        -24.11628      -13.76215       -2.90359
C        -21.72419      -11.87817       -2.40775
H        -23.95391      -12.32186        0.92959
H        -25.71288      -12.12475       -1.35619
H        -23.18877      -13.80146       -0.94453
H        -22.89219      -11.29146       -0.73038
H        -23.71718      -11.05106       -2.30348
H        -23.17852      -13.98597       -3.44827
H        -24.63444      -14.73503       -2.78022
H        -24.75011      -13.09653       -3.52835
H        -21.82493      -12.23778       -3.45103
H        -21.24475      -10.87710       -2.44972
H        -21.06405      -12.56469       -1.83730
N        -27.12982      -14.49910       -1.15937
C        -27.91095      -13.67312       -2.07315
C        -29.30084      -13.48686       -1.50130
O        -29.98006      -14.47534       -1.25626
C        -27.97545      -14.37203       -3.44645
C        -28.69395      -13.57750       -4.51020
O        -28.79356      -14.03989       -5.63487
O        -29.21477      -12.36135       -4.25156
H        -27.51273      -15.43737       -0.95799
H        -27.45205      -12.68743       -2.24094
H        -28.47084      -15.36162       -3.33718
H        -26.93792      -14.54382       -3.80378
N        -29.79343      -12.23752       -1.27777
C        -31.11659      -11.99119       -0.74019
C        -31.94365      -11.21706       -1.73246
O        -32.21765      -11.72616       -2.81039
H        -29.20919      -11.41650       -1.49828
H        -31.00545      -11.42739        0.21042
H        -31.65724      -12.93260       -0.50247
N        -32.40435       -9.97765       -1.41232
C        -33.29659       -9.20138       -2.26893
C        -32.71943       -8.80730       -3.63060
O        -33.49797       -8.31313       -4.43383
C        -33.83825       -7.96633       -1.49812
C        -32.77626       -7.10944       -0.84805
O        -32.76653       -6.96505        0.49106
O        -31.92482       -6.54488       -1.50852
H        -32.16228       -9.60633       -0.48154
H        -34.17936       -9.84143       -2.49466
H        -34.48833       -8.34402       -0.67937
H        -34.47464       -7.34424       -2.16435
N        -31.41237       -8.99002       -3.99425
C        -30.91125       -8.63577       -5.32547
C        -30.94958       -7.14143       -5.64444
O        -30.60940       -6.77220       -6.75836
H        -30.74992       -9.41607       -3.33130
H        -31.51065       -9.18511       -6.08442
H        -29.85592       -8.97123       -5.42071
N        -31.34284       -6.23053       -4.71328
C        -31.44665       -4.78646       -4.87862
C        -30.09208       -4.13889       -5.12130
O        -29.97912       -3.24277       -5.94602
C        -32.52724       -4.39092       -5.91200
C        -33.88015       -5.06118       -5.60437
C        -34.99633       -4.63093       -6.52355
N        -36.22618       -5.17787       -6.38205
O        -34.80438       -3.79398       -7.39380
H        -31.59082       -6.56901       -3.78581
H        -31.78331       -4.38881       -3.89391
H        -32.20680       -4.68086       -6.93604
H        -32.65154       -3.28608       -5.87928
H        -34.18242       -4.83014       -4.56012
H        -33.76521       -6.15849       -5.70993
H        -36.40439       -5.88953       -5.65762
H        -37.00157       -4.89459       -6.99924
N        -29.01106       -4.55946       -4.40598
C        -27.67918       -3.96024       -4.48572
C        -27.08380       -3.71886       -3.09025
O        -25.93096       -3.31296       -3.02003
C        -26.72873       -4.88974       -5.30279
C        -26.57806       -6.29182       -4.68464
C        -27.18774       -5.01063       -6.76300
H        -29.13083       -5.38772       -3.80482
H        -27.71680       -2.98266       -5.01593
H        -25.72112       -4.41728       -5.32612
H        -26.20130       -6.22496       -3.64310
H        -27.54477       -6.83789       -4.68420
H        -25.84694       -6.88793       -5.27105
H        -27.24444       -4.00473       -7.23119
H        -26.45979       -5.61714       -7.34347
H        -28.18271       -5.49603       -6.83215
N        -27.76619       -4.02358       -1.94530
C        -27.13955       -4.13522       -0.63053
C        -27.82334       -3.23085        0.39664
O        -28.76675       -2.53514        0.04315
C        -27.24526       -5.64135       -0.27749
C        -26.57716       -6.06339        0.99652
N        -27.29422       -6.64713        1.98419
O        -25.37661       -5.88690        1.13715
H        -28.75223       -4.31553       -1.99582
H        -26.06486       -3.85295       -0.67538
H        -26.76731       -6.22445       -1.09572
H        -28.32053       -5.92594       -0.25060
H        -28.30638       -6.81048        1.88005
H        -26.83724       -6.94112        2.85670
N        -27.40992       -3.21348        1.70247
C        -28.07293       -2.45993        2.75924
C        -27.03561       -1.71368        3.58341
O        -26.20159       -2.35683        4.20628
C        -28.88368       -3.46056        3.61480
C        -29.77464       -2.81675        4.65517
C        -31.17230       -2.88128        4.50920
C        -29.23920       -2.17190        5.78408
C        -32.01379       -2.30232        5.46222
C        -30.08328       -1.59482        6.73780
C        -31.47123       -1.65543        6.58040
O        -32.27169       -1.09434        7.50884
H        -26.62736       -3.81216        1.99158
H        -28.80085       -1.74445        2.31661
H        -28.21662       -4.20695        4.09986
H        -29.52684       -4.02372        2.90197
H        -31.61542       -3.37703        3.65425
H        -28.17217       -2.12208        5.94117
H        -33.08695       -2.35924        5.33011
H        -29.65668       -1.10294        7.60294
H        -33.23669       -1.11670        7.43657
N        -27.01953       -0.35264        3.62807
C        -26.05733        0.40232        4.43157
C        -26.40458        0.26441        5.90795
O        -27.51742        0.63742        6.25482
C        -26.10742        1.90608        4.07293
C        -25.70674        2.18278        2.61660
C        -25.79024        3.65266        2.31790
O        -26.54405        4.06087        1.44862
O        -25.03285        4.52841        3.00608
H        -27.70785        0.15957        3.05582
H        -25.03520        0.04195        4.20459
H        -25.40424        2.45504        4.73930
H        -27.13455        2.29834        4.24974
H        -26.38051        1.63565        1.92356
H        -24.66617        1.83578        2.44035
N        -25.56672       -0.22824        6.86951
C        -24.21002       -0.73803        6.68205
C        -23.26823        0.33802        6.17346
O        -23.15053        1.38037        6.80315
C        -23.67722       -1.27310        8.04149
C        -22.25545       -1.87402        7.99724
C        -22.12419       -3.13990        7.19062
O        -23.08656       -3.65056        6.64094
O        -20.92097       -3.73683        7.10008
H        -25.95030       -0.25606        7.82872
H        -24.24965       -1.58413        5.96726
H        -24.37415       -2.04214        8.44158
H        -23.66159       -0.42855        8.76673
H        -21.95159       -2.11693        9.03831
H        -21.54157       -1.11767        7.60819
N        -22.51836        0.11098        5.05863
C        -21.53817        1.04124        4.53989
H        -20.53863        0.55545        4.54937
H        -21.79744        1.30357        3.49363
H        -21.47839        1.97297        5.13933
H        -22.61975       -0.78341        4.56135
Ca       -21.56761       -5.98034        4.82741
O        -19.58728       -4.07549        3.42720
H        -19.63324       -3.12600        3.70396
H        -19.36915       -4.04394        2.46192
O        -22.80517       -7.19136        7.40537
H        -23.31324       -6.50533        7.90694
H        -23.43003       -7.49760        6.70069
O        -21.95634       -5.36944        1.74628
H        -21.83956       -4.57983        1.16143
H        -22.90664       -5.33608        2.02230
O        -24.63034       -5.36111        4.69122
H        -25.40901       -5.03153        5.20604
H        -25.00854       -6.02115        4.05921
O        -22.74358       -3.09858        3.48895
H        -22.45601       -2.53635        2.72639
H        -23.69640       -2.86718        3.61939

Ca 1.0



