%chk=apoCaM-CA-Ng.loop4.water5.frame682.chk
%nprocshared=20
%mem=10GB
%nosave
#b3lyp/svp scf=(tight,noincore,xqc) Test 
#IOP(5/87=12) Density=Current Pop=(MK,readradii) iop(6/33=2) iop(6/42=6)

apoCaM-CA-Ng.loop4.water5.frame682 

   -3  1 
C         69.25627       56.28106      100.55522
C         68.50367       56.55369      101.82433
O         68.51161       57.67658      102.30628
H         70.03812       55.51561      100.74405
H         68.55589       55.90784       99.77996
H         69.73689       57.19591      100.16203
N         67.79855       55.54732      102.40930
C         67.00708       55.68232      103.62864
C         65.92126       56.74487      103.47321
O         65.60845       57.43637      104.43381
C         67.90201       55.94252      104.86389
C         68.95794       54.88598      105.04024
O         69.91457       54.72262      104.10645
O         68.97476       54.19548      106.04659
H         67.79951       54.62401      101.94822
H         66.48930       54.71101      103.79307
H         67.25974       55.96380      105.77199
H         68.40732       56.92781      104.77887
N         65.32927       56.95550      102.26220
C         64.32352       57.99773      102.04033
C         63.02003       57.66169      102.77868
O         62.86641       56.50925      103.16023
C         64.07643       58.21490      100.51074
C         63.50761       56.93663       99.83012
C         65.36747       58.72617       99.83844
C         63.19009       57.11327       98.34711
H         65.66048       56.39300      101.46889
H         64.75557       58.92765      102.45176
H         63.33042       59.01760      100.37709
H         62.56056       56.65510      100.33781
H         64.20709       56.08198       99.91822
H         66.18135       57.97369       99.87738
H         65.18591       58.99728       98.77913
H         65.71660       59.65135      100.34636
H         62.46924       57.94410       98.20072
H         64.11208       57.30722       97.76224
H         62.74071       56.17481       97.95878
N         62.01535       58.56123      103.03976
C         62.04617       60.00330      102.78385
C         63.22229       60.63076      103.50238
O         64.02831       61.28518      102.85376
C         60.70805       60.69523      103.15119
C         60.32655       60.66357      104.60932
O         60.19728       61.70934      105.22558
O         60.08243       59.49659      105.23465
H         61.17672       58.18040      103.50167
H         62.15128       60.18434      101.69772
H         59.88801       60.22840      102.56320
H         60.78058       61.75877      102.82964
N         63.45214       60.36666      104.82039
C         64.69781       60.72746      105.46845
C         64.90378       62.20948      105.62688
O         63.99942       62.99810      105.38714
H         62.78938       59.77901      105.34683
H         65.53031       60.30708      104.86326
H         64.74793       60.26609      106.47859
N         66.12375       62.64529      106.04688
C         66.44647       64.04112      106.31793
C         66.26590       64.98448      105.13458
O         66.33709       66.18305      105.36661
C         67.88491       64.17102      106.88398
C         68.97036       63.78055      105.90499
O         69.82262       64.59361      105.58529
O         69.03468       62.53230      105.40262
H         66.83806       61.92633      106.23397
H         65.74096       64.37825      107.10951
H         67.98002       63.53206      107.78763
H         68.05183       65.22444      107.20075
N         66.02228       64.56170      103.85726
C         65.81265       65.50758      102.77017
C         67.04041       66.33771      102.43857
O         66.90305       67.27542      101.66655
H         65.95262       63.55798      103.64070
H         64.97877       66.18409      103.05997
H         65.50487       64.97059      101.84680
N         68.27673       66.03784      102.94155
C         69.48940       66.80728      102.67074
C         69.88732       66.81765      101.19774
O         70.84001       67.51177      100.86714
C         69.41005       68.22643      103.27848
C         69.23897       68.16327      104.80674
C         69.33040       69.52795      105.43646
N         68.29799       70.03585      106.14863
O         70.35976       70.17638      105.31874
H         68.38592       65.21254      103.54289
H         70.34067       66.31127      103.19020
H         68.59050       68.82032      102.82177
H         70.37156       68.74454      103.06770
H         70.04101       67.53323      105.24978
H         68.26511       67.69629      105.04610
H         67.42347       69.50458      106.26848
H         68.37568       70.96551      106.58721
N         69.30047       65.98820      100.28303
C         69.79007       65.83751       98.91340
C         70.60365       64.55564       98.77101
O         71.28254       64.40134       97.76719
C         68.63628       65.89712       97.87585
C         67.59730       64.77630       98.08169
C         67.94420       67.26451       97.90366
H         68.56413       65.34564      100.59940
H         70.50796       66.65687       98.68529
H         69.07820       65.76630       96.86304
H         67.06509       64.88072       99.04996
H         66.83351       64.81186       97.27700
H         68.08203       63.77777       98.04745
H         68.68089       68.06805       97.69150
H         67.15228       67.30687       97.12557
H         67.47961       67.45479       98.89407
N         70.59771       63.60661       99.75124
C         71.43688       62.41996       99.76291
C         72.25259       62.42288      101.05512
O         71.97482       63.20454      101.95294
C         70.50728       61.18840       99.68974
C         71.20120       59.88407       99.97889
N         70.92989       59.22392      101.12970
O         72.02969       59.43898       99.19909
H         69.97495       63.71284      100.56088
H         72.14325       62.42035       98.90350
H         70.00419       61.14097       98.69831
H         69.71171       61.32843      100.45217
H         70.24660       59.60129      101.80343
H         71.41505       58.34649      101.36434
N         73.31090       61.57456      101.19355
C         74.10366       61.49833      102.42050
C         75.40637       60.73260      102.17564
O         75.58260       60.15998      101.11239
C         73.25392       60.81153      103.52290
C         73.86960       60.86391      104.89738
C         74.31908       59.69039      105.52462
C         73.98422       62.09099      105.57180
C         74.88558       59.74530      106.80140
C         74.54040       62.14246      106.85345
C         74.99585       60.97288      107.47138
O         75.53412       61.04063      108.70576
H         73.57005       61.01003      100.37625
H         74.38240       62.53749      102.70223
H         73.08704       59.75755      103.20726
H         72.25089       61.28165      103.60607
H         74.24009       58.73589      105.02232
H         73.63218       63.00510      105.10957
H         75.23584       58.83376      107.26898
H         74.61619       63.09274      107.36725
H         75.86241       60.25629      109.16811
N         76.40093       60.74092      103.10817
C         77.68629       60.08890      102.90239
C         77.98601       59.17176      104.08039
O         78.66259       59.61539      104.99877
C         78.76640       61.18275      102.74149
C         80.14728       60.58934      102.41238
C         81.17622       61.67327      102.28643
O         81.45270       62.46600      103.33988
O         81.77833       61.83187      101.23684
H         76.27621       61.28775      103.97134
H         77.71282       59.51749      101.95626
H         78.81991       61.79638      103.66817
H         78.47026       61.85423      101.90459
H         80.08088       60.01644      101.46063
H         80.47957       59.89536      103.21180
N         77.53658       57.88819      104.18719
C         76.71960       57.15152      103.22272
C         77.45714       56.94830      101.91182
O         78.56672       56.43255      101.92190
C         76.36832       55.75977      103.80153
C         75.45389       55.86490      105.03462
C         75.22772       54.52295      105.66770
O         74.70756       53.61848      105.03638
O         75.59440       54.31484      106.94697
H         77.81751       57.39234      105.04811
H         75.76552       57.69389      103.04053
H         77.31053       55.22968      104.06907
H         75.84285       55.15538      103.03062
H         74.47891       56.30018      104.72975
H         75.90404       56.52895      105.80040
N         76.87002       57.30879      100.73483
C         77.49329       57.14488       99.43719
H         78.51087       56.70745       99.50618
H         76.86473       56.47807       98.80972
H         77.56841       58.13465       98.93967
H         75.92082       57.70797      100.74855
Ca        71.56387       53.21763      104.42210
O         70.21818       50.79644      105.64294
H         70.74320       49.97227      105.48374
H         69.29074       50.55294      105.39666
O         73.47890       50.93205      104.31965
H         73.39131       50.23220      105.01424
H         73.62807       50.43371      103.47752
O         72.11735       55.98064      106.07078
H         71.25235       56.44502      106.19687
H         72.58905       56.09389      106.93386
O         73.33914       54.47792      102.28944
H         72.85365       54.22472      101.46525
H         73.85947       53.66908      102.52479
O         71.83484       53.02016      107.64528
H         71.14726       53.59781      108.06250
H         72.69495       53.36970      107.98948

Ca 1.0



