%chk=apoCaM-CA-Ng.loop2.water3.frame362.chk
%nprocshared=20
%mem=10GB
%nosave
#b3lyp/svp scf=(tight,noincore,xqc) Test 
#IOP(5/87=12) Density=Current Pop=(MK,readradii) iop(6/33=2) iop(6/42=6)

apoCaM-CA-Ng.loop2.water3.frame362 

   -2  1 
C         59.75922       91.06665       21.04517
C         59.63360       91.21311       19.55667
O         59.18190       92.25828       19.11089
H         60.43140       91.85604       21.44156
H         58.75715       91.17550       21.51225
H         60.17078       90.07437       21.32447
N         60.00355       90.19741       18.72338
C         59.85903       90.25859       17.27017
C         58.88318       89.19965       16.79062
O         58.52126       88.32137       17.56303
C         61.22551       90.15623       16.55991
C         61.95240       88.85710       16.80410
O         62.20621       88.11569       15.86857
O         62.36926       88.52334       18.04044
H         60.37015       89.33363       19.14475
H         59.41719       91.23892       16.98758
H         61.87590       90.99210       16.89650
H         61.06223       90.27867       15.46684
N         58.34983       89.27284       15.53334
C         57.29431       88.37091       15.06161
C         56.06067       88.46769       15.95794
O         56.07481       89.25455       16.89465
C         56.94051       88.69206       13.60456
H         58.67495       90.02808       14.90948
H         57.67725       87.32719       15.10188
H         56.17878       87.98564       13.21476
H         56.55141       89.72865       13.51676
H         57.84768       88.59431       12.96989
N         54.96169       87.67828       15.76061
C         53.89602       87.58947       16.75922
C         52.61832       88.26123       16.26551
O         51.56842       87.63362       16.21743
C         53.67509       86.10525       17.15218
C         54.94125       85.27841       17.26148
O         55.95810       85.59990       18.08323
O         55.05659       84.28374       16.56229
H         54.91278       87.06497       14.93338
H         54.19486       88.13481       17.67838
H         53.06418       85.61571       16.36158
H         53.09903       86.06342       18.10163
N         52.65331       89.56023       15.85353
C         51.50986       90.24905       15.27342
C         50.43815       90.69862       16.25327
O         49.47513       91.28549       15.78006
H         53.55812       90.05437       15.85325
H         51.06381       89.60880       14.48018
H         51.87661       91.17450       14.77952
N         50.51988       90.50476       17.60455
C         49.50186       90.99011       18.54055
C         50.11922       91.93115       19.56641
O         51.03577       91.54056       20.27583
C         48.81165       89.80942       19.24544
C         48.00867       88.97422       18.27695
N         46.95498       89.50805       17.61104
O         48.30039       87.80065       18.10515
H         51.32805       89.99984       17.99589
H         48.70886       91.55495       18.00605
H         48.10713       90.19309       20.01615
H         49.57781       89.18531       19.75563
H         46.67755       90.49035       17.75428
H         46.40213       88.93519       16.95637
N         49.63266       93.19970       19.70015
C         50.12702       94.19292       20.64578
C         49.88930       93.83551       22.10070
O         49.45959       92.73064       22.40361
H         48.86423       93.49952       19.08035
H         49.56616       95.13517       20.45739
H         51.20432       94.39618       20.46978
N         50.10014       94.78429       23.06297
C         49.79695       94.56091       24.47799
C         50.87057       93.74406       25.19214
O         50.60723       93.29287       26.29753
C         49.49290       95.88708       25.23182
C         50.67448       96.86636       25.31405
O         48.36764       96.52260       24.67615
H         50.38389       95.72292       22.74780
H         48.85051       93.97511       24.52332
H         49.22584       95.62444       26.27920
H         48.62200       96.88154       23.78694
H         51.00396       97.20457       24.31089
H         50.37524       97.76193       25.89830
H         51.52704       96.39549       25.83207
N         52.09297       93.50897       24.63053
C         53.11102       92.63753       25.22308
C         53.32590       91.46882       24.27241
O         52.81391       91.50222       23.16030
C         54.41540       93.46889       25.49918
C         54.17726       94.60159       26.53287
C         55.64224       92.63908       25.92585
C         53.81538       94.13140       27.94828
H         52.31459       93.93508       23.71841
H         52.74275       92.19185       26.16998
H         54.70304       93.96103       24.54305
H         53.37484       95.26352       26.16555
H         55.09814       95.22107       26.60555
H         56.51024       93.30730       26.11152
H         55.44262       92.05348       26.84650
H         55.95902       91.95485       25.11413
H         52.87054       93.55335       27.95667
H         54.62614       93.51525       28.38793
H         53.67591       95.01689       28.60321
N         54.04463       90.37501       24.65654
C         54.28724       89.24785       23.77286
C         53.73474       87.98307       24.40984
O         54.44214       86.99694       24.51219
C         55.80514       89.19564       23.48391
C         56.21388       88.16619       22.47113
O         55.38807       87.43768       21.94567
O         57.51212       88.05458       22.13173
H         54.43820       90.32996       25.60743
H         53.75910       89.39267       22.80558
H         56.35604       89.01456       24.43222
H         56.12029       90.18546       23.08735
N         52.45822       87.95791       24.88349
C         51.84722       86.79028       25.52059
C         52.68126       86.33884       26.72513
O         52.95904       87.17731       27.57182
C         50.41616       87.16442       25.97748
C         49.60335       85.98349       26.44926
C         49.17345       85.89438       27.78420
C         49.23622       84.97359       25.54187
C         48.39549       84.80959       28.20311
C         48.45502       83.89397       25.96388
C         48.03537       83.81147       27.29360
H         51.90058       88.82235       24.79788
H         51.77152       85.98756       24.75998
H         49.85753       87.62072       25.13095
H         50.49195       87.93718       26.77485
H         49.43817       86.66201       28.50032
H         49.54506       85.02784       24.50546
H         48.06698       84.74482       29.23232
H         48.17078       83.12389       25.25824
H         47.42801       82.97621       27.61789
N         53.11336       85.04598       26.89450
C         53.87303       84.59635       28.05527
C         55.38387       84.75033       27.86968
O         56.11809       84.43881       28.79719
C         53.49981       83.11270       28.13139
C         53.47050       82.73582       26.65802
C         52.73499       83.92895       26.04852
H         53.55460       85.11415       28.98701
H         54.15958       82.48934       28.77287
H         52.45715       83.03070       28.51566
H         54.52119       82.73831       26.28949
H         53.02159       81.74888       26.41865
H         53.02385       84.05864       24.98359
H         51.63831       83.78623       26.13967
N         55.92048       85.16340       26.68703
C         57.35291       85.26013       26.43401
C         57.97751       86.31840       27.31826
O         58.87254       85.99406       28.08676
C         57.63443       85.58181       24.94556
C         57.15247       84.45896       24.00774
C         57.46028       84.77546       22.57259
O         58.73342       84.97052       22.18112
O         56.56084       84.83710       21.74950
H         55.28394       85.36804       25.91566
H         57.82817       84.27670       26.65246
H         58.73252       85.69978       24.80940
H         57.14676       86.53900       24.66483
H         56.05780       84.30447       24.11377
H         57.66496       83.51055       24.27433
N         57.55805       87.61209       27.26096
C         58.15294       88.64708       28.07800
H         59.23434       88.74134       27.84028
H         57.65879       89.62098       27.87595
H         58.03124       88.40008       29.15409
H         56.79444       87.87313       26.61968
Ca        56.14894       87.46581       19.30406
O         58.68450       84.31782       19.03851
H         59.59808       84.17643       18.68397
H         58.09856       83.80858       18.42401
O         60.19741       86.94114       20.43981
H         60.37112       86.79997       19.47528
H         61.01568       87.38438       20.77812
O         56.10421       90.39472       19.93540
H         56.75589       90.44318       19.19169
H         55.29091       90.00216       19.52870

Ca 1.0



