%chk=apoCaM-CA-Ng.loop2.water2.frame998.chk
%nprocshared=20
%mem=10GB
%nosave
#b3lyp/svp scf=(tight,noincore,xqc) Test 
#IOP(5/87=12) Density=Current Pop=(MK,readradii) iop(6/33=2) iop(6/42=6)

apoCaM-CA-Ng.loop2.water2.frame998 

   -2  1 
C         73.49639       84.67626       43.48949
C         72.00248       84.76673       43.41213
O         71.46555       84.57607       42.32993
H         73.86253       84.86577       44.51948
H         73.81767       83.65926       43.17932
H         73.94894       85.42316       42.80409
N         71.25911       85.04194       44.52394
C         69.80458       85.11043       44.50413
C         69.23836       83.99995       45.37435
O         68.42753       84.25744       46.25382
C         69.35741       86.52769       44.92848
C         67.86764       86.72183       44.84335
O         67.28932       86.59472       43.77591
O         67.16637       87.05113       45.94526
H         71.73904       85.19184       45.42489
H         69.42622       84.92866       43.47439
H         69.83646       87.27435       44.25868
H         69.70160       86.72675       45.96743
N         69.63700       82.71309       45.16147
C         69.06669       81.56391       45.85675
C         70.09141       80.91649       46.78176
O         71.24405       81.32612       46.74764
C         68.58895       80.58137       44.77599
H         70.36916       82.53388       44.45578
H         68.21024       81.89122       46.48233
H         69.45444       80.24541       44.16245
H         68.09756       79.68373       45.18270
H         67.86181       81.08604       44.10608
N         69.78919       79.91005       47.66156
C         68.46205       79.34324       47.90404
C         68.06982       79.47270       49.36785
O         68.89821       79.25907       50.24041
C         68.37527       77.87065       47.44832
C         69.28282       76.92509       48.17891
O         68.75838       75.90612       48.88396
O         70.49351       77.04258       48.09954
H         70.56918       79.53083       48.22035
H         67.69089       79.87105       47.31373
H         68.60396       77.79930       46.36507
H         67.32438       77.53274       47.59181
N         66.78578       79.78085       49.69842
C         66.29238       79.91277       51.05919
C         65.12840       78.97191       51.26604
O         64.00301       79.44987       51.25352
H         66.10356       79.93393       48.93913
H         65.92160       80.95662       51.15805
H         67.07086       79.76826       51.83517
N         65.26092       77.62254       51.42305
C         66.51712       76.90315       51.62306
C         67.04131       77.22422       53.01927
O         66.28424       77.07322       53.96952
C         66.24122       75.38409       51.49068
C         67.46015       74.49595       51.53791
N         67.30879       73.15565       51.43105
O         68.57881       74.96966       51.65589
H         64.38633       77.07310       51.45799
H         67.23912       77.17064       50.82315
H         65.75632       75.20326       50.50631
H         65.53695       75.06445       52.28932
H         66.37245       72.74079       51.32105
H         68.12206       72.52623       51.45861
N         68.31489       77.66605       53.22752
C         68.81226       78.08002       54.53582
C         69.90812       77.19189       55.09491
O         70.45038       77.53924       56.13113
H         68.95760       77.73447       52.42441
H         68.00191       78.10822       55.29534
H         69.20477       79.11450       54.43291
N         70.26858       76.02502       54.48999
C         71.32491       75.14184       54.98534
C         72.40064       75.00800       53.92400
O         72.26591       75.57873       52.85563
C         70.72725       73.75214       55.33953
C         69.78586       73.83110       56.54067
O         70.02572       73.21558       54.24768
H         69.78005       75.73406       53.63739
H         71.81331       75.55789       55.89222
H         71.53354       73.04771       55.64928
H         70.70127       72.81317       53.64459
H         70.33725       74.20498       57.43007
H         68.92788       74.50306       56.33240
H         69.39610       72.81702       56.77630
N         73.49665       74.22560       54.15563
C         74.49991       73.96221       53.13303
C         74.29657       72.51066       52.74465
O         74.36055       71.62806       53.58560
C         75.93185       74.33458       53.61910
C         76.99720       74.33901       52.48097
C         75.91595       75.75776       54.21693
C         77.27963       72.99904       51.80698
H         73.59136       73.74345       55.05956
H         74.30973       74.60329       52.24515
H         76.24431       73.63635       54.42580
H         77.96331       74.67564       52.91769
H         76.70825       75.07252       51.69448
H         75.59248       76.50067       53.45476
H         75.22816       75.82187       55.08561
H         76.92660       76.04079       54.58063
H         76.41343       72.64409       51.22835
H         78.10860       73.12858       51.07836
H         77.57727       72.23875       52.55752
N         73.96090       72.22873       51.46200
C         73.50221       70.94381       50.96617
C         74.57218       70.27458       50.13016
O         74.74924       69.07562       50.30714
C         72.21333       71.17804       50.14791
C         71.06584       71.59957       51.03092
O         70.59618       70.79160       51.81626
O         70.53606       72.84255       50.98268
H         73.98372       73.00183       50.79481
H         73.26180       70.24366       51.79903
H         71.90550       70.24508       49.62673
H         72.40231       71.94294       49.36843
N         75.33072       70.95284       49.21714
C         76.34948       70.29833       48.40098
C         77.03952       71.30439       47.46807
O         77.65184       72.22868       47.99099
C         77.46435       69.65068       49.27349
C         78.34447       68.76523       48.42600
C         79.66597       69.13041       48.12505
C         77.83353       67.55432       47.92439
C         80.45792       68.30096       47.32334
C         78.63120       66.72397       47.13413
C         79.94170       67.09866       46.83014
H         75.16992       71.96007       49.08688
H         75.82505       69.50135       47.83892
H         77.08048       69.01432       50.09323
H         78.05028       70.45822       49.76595
H         80.07680       70.06060       48.49631
H         76.81874       67.25102       48.15263
H         81.47231       68.59025       47.08295
H         78.23187       65.79104       46.75696
H         80.55647       66.45658       46.21293
N         77.06501       71.17774       46.10236
C         77.89168       71.99423       45.21074
C         77.73150       73.51124       45.24411
O         78.50550       74.17695       44.57089
C         77.50671       71.49348       43.81543
C         77.24102       70.03182       44.07309
C         76.45171       70.07975       45.37626
H         78.94951       71.74869       45.45790
H         76.53017       71.94699       43.52245
H         78.25394       71.70974       43.02301
H         76.73752       69.48054       43.25122
H         78.22660       69.55190       44.27619
H         75.37724       70.31751       45.21870
H         76.57618       69.08887       45.85792
N         76.75285       74.13392       45.95548
C         76.57726       75.59337       45.95869
C         77.74374       76.35106       46.58079
O         77.77402       77.56767       46.44993
C         75.26676       75.94998       46.69011
C         75.33795       75.57700       48.18105
C         74.00502       75.13209       48.67063
O         73.78161       73.93741       48.70005
O         73.02278       75.96782       49.03296
H         76.06912       73.54458       46.44945
H         76.47623       75.91074       44.89717
H         74.47997       75.34760       46.18151
H         74.97999       77.01930       46.58840
H         75.82032       76.34942       48.81824
H         75.98518       74.68342       48.30577
N         78.71691       75.72339       47.30039
C         79.81663       76.44994       47.89659
H         80.42363       76.93341       47.10219
H         79.43034       77.22496       48.59290
H         80.46608       75.75314       48.46799
H         78.67633       74.70716       47.45838
Ca        71.48841       74.68341       50.08039
O         71.47528       77.85675       51.31435
H         71.27954       78.14550       50.38917
H         72.09526       78.54539       51.66187
O         70.82875       74.07810       47.20800
H         70.83566       73.09507       47.32471
H         71.25564       74.23061       46.32805

Ca 1.0



