%chk=apoCaM-CA-Ng.loop1.water4.frame470.chk
%nprocshared=20
%mem=10GB
%nosave
#b3lyp/svp scf=(tight,noincore,xqc) Test 
#IOP(5/87=12) Density=Current Pop=(MK,readradii) iop(6/33=2) iop(6/42=6)

apoCaM-CA-Ng.loop1.water4.frame470 

   0  1 
C         48.49468       25.75585       78.55165
C         47.08074       25.80508       78.06098
O         46.18116       25.83735       78.88944
H         49.21622       25.74451       77.70925
H         48.69554       26.64592       79.18435
H         48.63965       24.83856       79.16056
N         46.80204       25.80070       76.72381
C         45.44128       25.83805       76.20848
C         45.13259       24.53335       75.48363
O         44.65006       24.57294       74.36350
C         45.23844       27.07476       75.29918
C         45.49693       28.37627       76.00957
O         46.72126       28.65628       76.49609
O         44.60481       29.20265       76.11780
H         47.57779       25.75279       76.04567
H         44.71984       25.92647       77.03948
H         44.19156       27.08092       74.92893
H         45.91685       27.01273       74.42062
N         45.41241       23.32476       76.05999
C         45.11876       22.04596       75.41116
C         44.57696       21.02053       76.40114
O         45.20532       20.85211       77.43707
C         46.36350       21.42810       74.74530
C         46.86572       22.24101       73.53940
C         47.69453       21.37956       72.56561
C         48.93512       20.69981       73.16375
N         49.93669       21.66857       73.60130
H         45.90466       23.31356       76.96602
H         44.40656       22.20373       74.59410
H         46.04056       20.44011       74.35385
H         47.18283       21.24752       75.47461
H         47.41218       23.14352       73.88621
H         45.99336       22.58414       72.94151
H         47.99640       22.00387       71.69717
H         47.03001       20.57480       72.17743
H         49.38186       20.05232       72.37643
H         48.64685       20.03839       74.00958
H         50.22434       22.27057       72.79585
H         49.56039       22.25958       74.37588
H         50.77454       21.14981       73.95057
N         43.50805       20.19462       76.15285
C         42.64368       20.18309       74.97026
C         43.43924       19.96736       73.68304
O         43.50449       20.86810       72.86166
C         41.71269       21.42201       74.96810
C         40.79077       21.41847       76.16514
O         39.97170       22.31191       76.30371
O         40.85225       20.41727       77.06978
H         43.29769       19.48176       76.86933
H         41.94694       19.31959       75.04085
H         41.07224       21.38971       74.06081
H         42.28236       22.37044       74.96001
N         44.07945       18.79617       73.40227
C         43.96647       17.60063       74.22598
C         44.84386       16.45508       73.73869
O         45.61864       16.63739       72.81036
H         44.63040       18.76264       72.53099
H         42.90460       17.27766       74.22524
H         44.28268       17.83429       75.26281
N         44.83831       15.23421       74.34893
C         43.92494       14.87067       75.42830
C         42.52609       14.61586       74.89835
O         42.39063       14.20398       73.75361
C         44.39632       13.60232       76.18015
C         44.33253       12.33250       75.36250
O         45.00563       12.19950       74.35360
O         43.52531       11.32766       75.75378
H         45.53951       14.54818       74.03372
H         43.92639       15.68908       76.18094
H         43.73860       13.46728       77.06731
H         45.43262       13.75315       76.55040
N         41.44476       14.74201       75.71758
C         40.10673       14.31515       75.34073
C         39.65398       14.91987       74.03837
O         39.36655       14.16978       73.11549
H         41.58063       15.11171       76.67081
H         39.39145       14.57942       76.14990
H         40.10565       13.20734       75.23791
N         39.57543       16.26780       73.88492
C         39.16019       16.89940       72.63950
C         40.28189       17.77968       72.12423
O         40.75529       18.62904       72.86247
C         37.86517       17.71684       72.85260
C         36.70602       16.83859       73.34317
O         37.48699       18.35761       71.65975
H         39.82130       16.87245       74.68417
H         38.92545       16.13569       71.86559
H         38.05209       18.50127       73.61773
H         37.36554       17.66123       70.96128
H         36.48581       16.03828       72.60349
H         36.95188       16.36803       74.31772
H         35.79454       17.45928       73.47373
N         40.73728       17.63102       70.84674
C         41.77180       18.46312       70.22637
C         41.18478       19.75930       69.65222
O         41.38427       20.04351       68.48010
C         42.59783       17.63835       69.16491
C         41.77498       16.80535       68.12608
C         43.55427       16.66937       69.87807
C         40.70996       17.55742       67.33006
H         40.27281       16.91831       70.27205
H         42.48660       18.80943       71.00526
H         43.24671       18.35509       68.61341
H         41.27253       15.95311       68.62918
H         42.48449       16.36023       67.39451
H         42.99107       15.91528       70.46807
H         44.18966       16.13890       69.13510
H         44.23160       17.22620       70.55696
H         40.20693       16.85505       66.63300
H         39.92870       17.96611       68.00524
H         41.16694       18.36600       66.72452
N         40.48248       20.62836       70.43431
C         39.87684       21.85907       69.92959
C         40.44974       23.10789       70.58799
O         40.02645       24.19188       70.21846
C         38.33423       21.80241       70.10467
C         37.87036       21.71566       71.56974
O         37.78836       20.74591       69.35442
H         40.35167       20.41216       71.42726
H         40.07486       21.97140       68.84119
H         37.91192       22.74217       69.68778
H         38.16091       19.89622       69.70407
H         36.76106       21.71951       71.61061
H         38.22862       20.78979       72.06028
H         38.24045       22.58416       72.15082
N         41.40653       23.04063       71.56531
C         41.98472       24.19492       72.25112
C         40.92685       24.93705       73.05887
O         39.74675       24.62297       72.94846
C         42.75862       25.10419       71.24443
C         43.86999       24.32268       70.52139
O         43.30080       26.24229       71.86632
H         41.75330       22.12372       71.85552
H         42.71547       23.80489       72.99029
H         42.06163       25.47721       70.46829
H         44.08371       25.96126       72.40418
H         44.39363       24.98871       69.80354
H         44.61257       23.93691       71.25293
H         43.44995       23.46384       69.95762
N         41.28312       25.91807       73.93246
C         40.32590       26.69430       74.70683
C         40.49559       26.47997       76.21105
O         39.74802       27.08169       76.96450
C         40.45293       28.18293       74.31549
C         40.21633       28.37637       72.80073
C         40.34433       29.83433       72.32936
C         39.29909       30.80539       72.90813
N         37.93079       30.43518       72.53959
H         42.28115       26.14320       74.05137
H         39.28302       26.38452       74.47097
H         41.46701       28.55539       74.58109
H         39.69882       28.76530       74.88500
H         39.22333       27.97063       72.51441
H         40.98067       27.79528       72.24219
H         40.25226       29.84839       71.22084
H         41.36036       30.20473       72.58643
H         39.51582       31.81751       72.49983
H         39.38944       30.86755       74.01297
H         37.27524       31.17284       72.88462
H         37.84125       30.36676       71.49955
H         37.66070       29.52851       72.98222
N         41.41159       25.59629       76.72275
C         41.51773       25.30838       78.15215
C         41.93915       26.54069       78.92962
O         42.99638       27.09109       78.65634
C         42.51466       24.14561       78.39411
C         42.68878       23.76431       79.87477
C         41.39948       23.33667       80.51160
O         40.91596       24.00621       81.57494
O         40.78682       22.37857       80.07357
H         42.01891       25.06859       76.08278
H         40.52381       24.95866       78.50738
H         43.51220       24.41128       78.00450
H         42.17010       23.25305       77.83096
H         43.11090       24.62559       80.43575
H         43.41621       22.92701       79.94449
N         41.15795       27.00185       79.94789
C         41.50920       28.13418       80.78026
H         42.47584       28.59422       80.48701
H         40.71347       28.90430       80.71094
H         41.59041       27.79758       81.83588
H         40.27604       26.51489       80.16677
Ca        39.51041       20.16291       78.86329
O         37.07740       18.96004       80.11586
H         36.93901       18.54953       81.00590
H         36.50636       19.76880       80.12239
O         37.31466       22.17398       78.75890
H         37.87197       22.12500       77.94255
H         37.24475       23.14203       78.95126
O         40.00687       17.02634       79.61210
H         39.05690       16.76102       79.52453
H         40.48267       16.46903       78.94613
O         38.53293       18.23351       76.65305
H         37.70385       18.02484       77.15216
H         38.35034       19.10560       76.22093

Ca 1.0



