%chk=apoCaM-CA-Ng.loop3.water3.frame257.chk
%nprocshared=20
%mem=10GB
%nosave
#b3lyp/svp scf=(tight,noincore,xqc) Test 
#IOP(5/87=12) Density=Current Pop=(MK,readradii) iop(6/33=2) iop(6/42=6)

apoCaM-CA-Ng.loop3.water3.frame257 

   0  1 
C         52.23037       51.23416       15.04102
C         53.06556       50.97705       13.82292
O         53.37956       51.90862       13.09684
H         51.27752       50.66784       14.95914
H         52.77569       50.89722       15.94675
H         51.99981       52.31364       15.14614
N         53.45501       49.70474       13.54091
C         54.23860       49.29837       12.37902
C         53.47541       49.56466       11.08437
O         54.06337       50.04646       10.12540
C         55.63429       49.97285       12.36898
C         56.34659       49.84889       13.68649
O         56.65698       50.85382       14.30780
O         56.64620       48.63735       14.18939
H         53.17004       48.95739       14.19401
H         54.37913       48.19668       12.46078
H         55.52081       51.05379       12.13474
H         56.26145       49.52194       11.57003
N         52.13437       49.32126       11.01036
C         51.33158       49.60988        9.82453
C         50.44211       50.82561       10.02296
O         49.68055       51.12956        9.11246
C         50.47942       48.38737        9.44183
C         51.33696       47.20532        8.98197
C         50.44194       46.06433        8.48574
C         51.27601       44.90689        7.92812
N         50.41095       43.83652        7.43379
H         51.64289       48.97701       11.84973
H         51.97488       49.86408        8.95351
H         49.82706       48.67029        8.58575
H         49.82591       48.09210       10.29291
H         51.98448       46.85201        9.81373
H         51.98341       47.54235        8.14148
H         49.78224       46.44489        7.67415
H         49.80450       45.70178        9.32173
H         51.94219       44.50820        8.72452
H         51.90907       45.27878        7.09116
H         51.00434       43.06594        7.05073
H         49.82454       43.45991        8.21357
H         49.79246       44.19730        6.67081
N         50.52967       51.62752       11.12313
C         49.74907       52.84951       11.23872
C         50.34760       53.75518       12.31000
O         50.36192       53.37811       13.47319
C         48.27064       52.50454       11.53700
C         47.39193       53.71529       11.53044
O         47.84621       54.81145       11.24629
O         46.09929       53.62514       11.87866
H         51.22552       51.41768       11.84866
H         49.81782       53.38791       10.26654
H         48.21119       52.01876       12.53626
H         47.86643       51.79565       10.78584
N         50.90620       54.95557       11.96901
C         51.59570       55.80651       12.92764
C         50.69590       56.46793       13.95420
O         51.23454       57.03431       14.89423
H         50.92069       55.24076       10.97789
H         52.13300       56.61918       12.39121
H         52.36159       55.18852       13.44476
N         49.33725       56.49385       13.82503
C         48.44033       57.12854       14.79113
C         47.42720       56.13962       15.36631
O         46.66435       56.52800       16.23970
C         47.79057       58.36407       14.13174
C         46.91988       58.02747       12.90791
N         46.84441       59.12985       11.95724
O         45.62942       57.66015       13.30248
H         48.91595       56.08596       12.98400
H         49.02699       57.50833       15.65660
H         48.63790       59.00463       13.80134
H         47.19875       58.95696       14.86297
H         47.80499       59.32123       11.58934
H         46.47332       59.98514       12.42757
N         47.38973       54.83648       14.95878
C         46.52466       53.81444       15.52121
C         45.04741       54.03805       15.29537
O         44.62959       55.07917       14.81241
H         48.04255       54.50630       14.23797
H         46.72438       53.69801       16.60751
H         46.78012       52.85231       15.02304
N         44.19115       53.03281       15.62406
C         42.74277       53.07763       15.41976
C         42.40151       53.15809       13.94125
O         43.30199       53.13418       13.11297
C         42.10719       51.77163       15.95730
C         42.45958       51.49177       17.39301
C         42.01594       52.33391       18.42343
C         43.24574       50.37046       17.70684
C         42.35466       52.05373       19.75123
C         43.58897       50.09740       19.03019
C         43.14444       50.93398       20.05751
O         43.48121       50.65137       21.33126
H         44.60758       52.18181       16.03146
H         42.32494       53.95501       15.96090
H         42.47698       50.93559       15.32098
H         41.00060       51.79150       15.86718
H         41.40564       53.20017       18.19942
H         43.60224       49.71082       16.92467
H         42.00365       52.70647       20.53988
H         44.20128       49.23322       19.25438
H         43.19144       51.20005       22.07327
N         41.09769       53.18996       13.53898
C         40.70047       53.08949       12.14303
C         40.03968       54.39254       11.74434
O         40.61317       55.10043       10.93523
C         39.81871       51.81743       11.93828
C         40.49400       50.52999       12.49965
C         39.42421       51.62182       10.46584
C         41.82692       50.14233       11.84878
H         40.35174       53.24388       14.24917
H         41.59734       52.97357       11.49705
H         38.87930       51.94264       12.52033
H         39.79409       49.67334       12.38862
H         40.66805       50.65595       13.58848
H         38.78687       50.71653       10.36140
H         38.84362       52.49049       10.09811
H         40.31972       51.50356        9.82181
H         41.69761       49.91923       10.77111
H         42.58448       50.93986       11.96848
H         42.22248       49.22945       12.34284
N         38.86900       54.81000       12.30116
C         38.28650       56.12236       12.02030
C         38.01356       56.35208       10.54262
O         38.23503       57.46437       10.08423
C         36.99513       56.34234       12.82480
O         37.24728       56.24299       14.20160
H         38.39572       54.19085       12.97685
H         39.00380       56.90583       12.35519
H         36.22996       55.58768       12.54555
H         36.56092       57.34427       12.59576
H         37.64625       57.10868       14.48246
N         37.54185       55.35644        9.73499
C         37.19578       55.53448        8.32376
C         38.35364       55.96620        7.42255
O         38.09375       56.19298        6.24810
C         36.01854       56.51297        8.19294
H         37.38774       54.42315       10.14400
H         36.83423       54.55844        7.92979
H         36.29292       57.53578        8.52078
H         35.68093       56.56819        7.13534
H         35.16351       56.15381        8.80359
N         39.64584       56.06550        7.85789
C         40.74275       56.48635        6.99351
C         41.69028       55.33924        6.72054
O         41.60764       54.30404        7.36789
C         41.49322       57.66199        7.63166
H         39.87948       55.80659        8.81886
H         40.34751       56.81506        6.00859
H         40.80180       58.51407        7.79967
H         41.92252       57.36006        8.61158
H         42.32341       58.00579        6.97847
N         42.59142       55.45565        5.70155
C         43.56082       54.43937        5.29903
C         42.93761       53.13815        4.79042
O         43.70198       52.25942        4.41477
C         44.56544       54.14891        6.43421
C         45.23145       55.43163        6.95368
C         46.24770       55.12090        8.00962
O         46.09805       55.62161        9.24784
O         47.21937       54.42874        7.75020
H         42.60313       56.33788        5.16638
H         44.14606       54.85887        4.44934
H         45.35370       53.46866        6.04131
H         44.05834       53.62816        7.27153
H         44.45819       56.10137        7.38971
H         45.73343       55.96755        6.12023
N         41.58803       52.92775        4.73248
C         40.99547       51.68192        4.28604
H         40.33120       51.87889        3.41950
H         41.75420       50.92990        3.98421
H         40.39055       51.24964        5.11122
H         40.92664       53.66142        5.01234
Ca        45.34881       55.69470       12.23649
O         43.34770       54.76405       10.26937
H         42.95369       55.64214       10.04100
H         43.48391       54.32318        9.39629
O         44.35752       57.97396       10.24165
H         43.95279       58.87074       10.34819
H         45.18855       58.13576        9.72861
O         42.43635       56.64183       12.95485
H         41.70317       56.42428       13.58368
H         41.99267       57.12037       12.21014

Ca 1.0



