%chk=apoCaM-CA-Ng.loop1.water3.frame1479.chk
%nprocshared=20
%mem=10GB
%nosave
#b3lyp/svp scf=(tight,noincore,xqc) Test 
#IOP(5/87=12) Density=Current Pop=(MK,readradii) iop(6/33=2) iop(6/42=6)

apoCaM-CA-Ng.loop1.water3.frame1479 

   0  1 
C         50.91011       52.93717       61.46777
C         50.01907       54.14036       61.51717
O         50.44678       55.17449       62.01138
H         51.90304       53.16570       61.91202
H         50.44599       52.11079       62.04682
H         51.05058       52.61735       60.41521
N         48.74398       54.06543       61.03772
C         47.79794       55.17277       61.12354
C         46.66273       54.78361       62.04551
O         45.49563       54.90503       61.69783
C         47.33193       55.63874       59.72613
C         46.57961       54.59211       58.94363
O         47.12417       53.55393       58.60527
O         45.30021       54.81401       58.58633
H         48.42209       53.16705       60.64908
H         48.28792       56.04543       61.59936
H         48.21491       55.96322       59.13549
H         46.67248       56.52452       59.86115
N         46.96707       54.28635       63.27168
C         45.96855       53.90850       64.25401
C         45.16316       55.11443       64.72984
O         43.94683       54.98423       64.73819
C         46.58286       53.07398       65.40337
C         47.17995       51.76510       64.82845
C         47.64327       50.76762       65.89493
C         48.21178       49.50703       65.21493
N         48.61625       48.50201       66.19608
H         47.96212       54.15624       63.50918
H         45.24813       53.20671       63.77150
H         45.76468       52.80158       66.10680
H         47.35190       53.64958       65.96178
H         48.03868       52.00323       64.16588
H         46.40163       51.25421       64.21813
H         46.77502       50.48314       66.52906
H         48.42379       51.23039       66.53590
H         49.09172       49.78756       64.59321
H         47.44243       49.06269       64.54339
H         49.01096       47.67474       65.69158
H         49.34807       48.89170       66.83268
H         47.78690       48.19123       66.75225
N         45.67349       56.33995       65.07637
C         47.07265       56.77731       65.05803
C         47.29905       57.78907       63.93807
O         46.33587       58.29051       63.37500
C         47.49382       57.28664       66.45804
C         46.44313       58.11968       67.16998
O         46.13981       59.40448       66.87209
O         45.82310       57.58863       68.07765
H         44.97762       57.06081       65.32288
H         47.74239       55.93521       64.82376
H         48.48930       57.77563       66.45680
H         47.59913       56.36006       67.06789
N         48.56223       58.02118       63.46030
C         48.81672       58.83707       62.27138
C         48.61856       60.30330       62.53883
O         48.48070       60.65653       63.68445
H         49.35759       57.52489       63.89041
H         48.14520       58.49723       61.45453
H         49.86656       58.70427       61.93346
N         48.58409       61.22535       61.53693
C         48.36605       62.65928       61.77839
C         49.45610       63.49047       61.11232
O         50.19362       62.93934       60.30692
C         46.98404       63.03551       61.20070
C         45.88113       62.32590       61.93237
O         45.14192       61.55759       61.33854
O         45.69489       62.54926       63.24768
H         48.66031       60.89210       60.56351
H         48.38461       62.88433       62.86480
H         46.95720       62.77365       60.11965
H         46.77619       64.11560       61.27627
N         49.63304       64.83058       61.33391
C         48.98317       65.64240       62.35652
C         49.60023       65.38863       63.70777
O         50.81019       65.53514       63.81649
H         50.33684       65.31620       60.75520
H         47.88563       65.54270       62.35275
H         49.19971       66.71084       62.13543
N         48.84556       65.03233       64.78988
C         49.43354       64.79324       66.10994
C         49.27273       63.30281       66.52633
O         49.01938       62.52456       65.39304
C         48.81655       65.75094       67.15944
C         49.12213       67.21674       66.83322
O         49.32714       65.46371       68.43632
H         47.82731       64.91128       64.67545
H         50.52688       65.00039       66.07209
H         47.71215       65.59926       67.15016
H         48.63926       65.74210       69.09660
H         48.65811       67.87585       67.59804
H         50.22009       67.39034       66.84145
H         48.71763       67.49712       65.83890
N         50.52449       62.87763       67.20036
C         50.72988       61.45767       67.56071
C         49.60730       60.95126       68.44030
O         48.48719       60.88398       67.97926
C         50.97644       60.53634       66.32003
C         52.10353       61.12641       65.42873
C         51.32172       59.10543       66.77916
C         52.36143       60.33909       64.14113
H         50.64134       63.44247       68.07194
H         51.67494       61.42316       68.14930
H         50.05249       60.45894       65.71909
H         53.05022       61.19067       66.00824
H         51.81972       62.15470       65.11732
H         52.26459       59.09890       67.36560
H         50.51091       58.68837       67.40976
H         51.42524       58.41974       65.91446
H         53.14292       60.85665       63.54515
H         52.73152       59.31638       64.35382
H         51.43582       60.28020       63.53176
N         49.82648       60.55444       69.72045
C         48.75534       59.99886       70.54152
C         48.40775       60.87808       71.72463
O         47.45869       60.53099       72.41367
C         49.06964       58.53747       70.93651
C         50.35065       58.39027       71.75794
O         49.19004       57.75251       69.77778
H         50.77571       60.63508       70.11323
H         47.80512       59.95107       69.96327
H         48.23322       58.14273       71.56083
H         48.26812       57.55514       69.46613
H         50.29054       58.99363       72.68695
H         50.48799       57.32342       72.03319
H         51.23883       58.70324       71.17117
N         49.06385       62.04700       72.00875
C         48.58342       62.93652       73.06189
C         47.22329       63.45935       72.62403
O         47.15778       64.21273       71.66250
C         49.59160       64.08330       73.33286
C         49.13025       65.01990       74.45783
O         50.85767       63.55581       73.64649
H         49.88610       62.32759       71.45596
H         48.49509       62.33998       73.99791
H         49.70324       64.68953       72.40723
H         50.76172       63.00026       74.46452
H         49.00944       64.45666       75.40783
H         49.88700       65.81840       74.61200
H         48.16395       65.50088       74.19921
N         46.08909       62.98480       73.21727
C         44.72426       63.22799       72.74952
C         44.50664       62.73807       71.32253
O         45.45804       62.41958       70.62544
C         44.30611       64.70784       72.87403
C         44.31160       65.18789       74.32922
C         43.81623       66.63981       74.41879
C         43.79311       67.18659       75.85573
N         42.83579       66.47927       76.70968
H         46.19250       62.33382       74.01036
H         44.04755       62.62054       73.39205
H         43.26855       64.81837       72.48849
H         44.96635       65.35236       72.25513
H         45.33983       65.11872       74.74590
H         43.63851       64.52446       74.91097
H         42.79444       66.71973       73.98580
H         44.49716       67.28129       73.81754
H         43.49903       68.25866       75.80811
H         44.81126       67.12969       76.29960
H         41.87831       66.52066       76.29033
H         43.12204       65.48502       76.84985
H         42.81143       66.94284       77.64638
N         43.23723       62.61844       70.84022
C         42.91919       62.22457       69.46966
C         43.63892       60.94891       69.04464
O         44.32492       61.01915       68.03666
C         41.39442       62.10200       69.24773
C         40.66132       63.44460       69.39257
C         39.18103       63.26147       69.21512
O         38.33909       63.58104       70.21670
O         38.73312       62.82294       68.16748
H         42.46189       62.81005       71.49135
H         43.27525       63.02908       68.78498
H         40.95712       61.38143       69.96198
H         41.21374       61.72559       68.21573
H         41.03610       64.16086       68.62978
H         40.84072       63.87962       70.39683
N         43.59610       59.75858       69.71036
C         42.88742       59.50823       70.94410
H         41.79802       59.60829       70.80289
H         43.07923       58.46364       71.27019
H         43.24939       60.18325       71.74468
H         44.13968       58.97367       69.32385
Ca        47.23309       61.08646       65.81405
O         44.43275       63.59907       66.00724
H         43.49021       63.70227       65.72238
H         44.54396       64.25965       66.73623
O         46.89426       63.47531       68.48861
H         46.33673       62.82708       67.99125
H         46.28476       64.23117       68.68244
O         44.10371       60.06644       64.61994
H         43.85568       59.11007       64.67636
H         44.45662       60.17327       63.70175

Ca 1.0



