%chk=apoCaM-CA-Ng.loop1.water3.frame1395.chk
%nprocshared=20
%mem=10GB
%nosave
#b3lyp/svp scf=(tight,noincore,xqc) Test 
#IOP(5/87=12) Density=Current Pop=(MK,readradii) iop(6/33=2) iop(6/42=6)

apoCaM-CA-Ng.loop1.water3.frame1395 

   0  1 
C         50.67795       98.37765       55.38549
C         49.43303       98.66025       54.59843
O         48.47001       97.92034       54.74198
H         51.47974       99.10978       55.15455
H         50.45369       98.41917       56.47094
H         51.04886       97.36198       55.12870
N         49.39146       99.69845       53.71506
C         48.24711       99.96654       52.85306
C         48.67241       99.69146       51.42812
O         48.59218      100.55073       50.56005
C         47.73302      101.40068       53.06946
C         47.25957      101.60224       54.48126
O         47.84364      102.52961       55.26343
O         46.34019      100.93143       54.92379
H         50.22773      100.29239       53.60173
H         47.41063       99.26584       53.06927
H         46.88124      101.60113       52.38350
H         48.54630      102.12458       52.84216
N         49.16530       98.45788       51.14289
C         49.62268       98.03315       49.83048
C         48.47724       98.01922       48.83121
O         48.64724       98.63423       47.78857
C         50.38137       96.68798       49.92597
C         51.66379       96.89212       50.77082
C         52.49974       95.63392       51.01850
C         53.08561       95.02198       49.74098
N         53.99345       93.92369       50.07330
H         49.23028       97.78303       51.92027
H         50.37875       98.76217       49.45589
H         50.67449       96.36538       48.90398
H         49.74065       95.89952       50.37207
H         51.39279       97.28089       51.77416
H         52.30698       97.65664       50.28031
H         51.89282       94.87802       51.56185
H         53.34539       95.93705       51.67528
H         53.65149       95.79905       49.18029
H         52.26636       94.64214       49.09334
H         54.79467       94.28391       50.64245
H         53.48661       93.18459       50.61242
H         54.36997       93.50767       49.19162
N         47.25277       97.44904       49.04436
C         46.78394       96.76726       50.24986
C         45.88031       97.72618       51.03228
O         45.79330       98.88238       50.63406
C         46.08417       95.44991       49.83233
C         44.82092       95.71217       49.05995
O         43.83150       96.37605       49.67298
O         44.70425       95.36540       47.89905
H         46.54691       97.60668       48.30674
H         47.62064       96.48650       50.91277
H         45.82481       94.85572       50.73133
H         46.79292       94.84570       49.22388
N         45.16167       97.34152       52.13083
C         44.31309       98.27998       52.86555
C         42.83967       98.01056       52.66424
O         42.48167       97.01218       52.05716
H         45.18844       96.35700       52.43953
H         44.48189       99.31754       52.50864
H         44.57158       98.26636       53.94580
N         41.91996       98.92382       53.08902
C         40.48106       98.80412       52.84931
C         39.70059       98.89685       54.15546
O         40.27331       99.31272       55.15543
C         40.06034       99.91497       51.84861
C         40.64710       99.59364       50.50740
O         40.28295       98.44767       49.89551
O         41.51572      100.30042       50.02353
H         42.26392       99.78263       53.55002
H         40.26199       97.81458       52.40528
H         40.41832      100.90026       52.22198
H         38.97195      100.00470       51.70803
N         38.38734       98.52868       54.26488
C         37.60146       97.92085       53.19756
C         38.07598       96.52745       52.84203
O         38.90081       95.95819       53.54099
H         37.91347       98.67308       55.16980
H         37.59878       98.56445       52.30573
H         36.54105       97.83041       53.51680
N         37.56435       95.91729       51.73674
C         37.90297       94.55466       51.32850
C         39.39454       94.37660       51.07057
O         40.05299       95.29555       50.60474
C         37.10440       94.13870       50.06657
C         35.59362       94.10400       50.32363
O         37.50279       92.85365       49.65299
H         36.89229       96.45540       51.17058
H         37.61332       93.86386       52.15203
H         37.30863       94.88828       49.26483
H         37.79196       92.91881       48.70500
H         35.35872       93.36281       51.11746
H         35.20167       95.09300       50.63471
H         35.06525       93.80542       49.39382
N         39.96447       93.16493       51.34322
C         41.36158       92.78066       51.15714
C         41.77944       92.81082       49.69578
O         41.79802       93.87331       49.09257
C         42.34835       93.62229       52.01634
C         41.91990       93.75249       53.49852
C         43.78043       93.05559       51.91524
C         41.77387       92.42785       54.25069
H         39.35108       92.43005       51.72930
H         41.44917       91.73078       51.51333
H         42.37733       94.64798       51.60504
H         40.94923       94.28578       53.54882
H         42.66701       94.38283       54.02971
H         44.48575       93.67026       52.51263
H         43.82708       92.00555       52.27170
H         44.13516       93.06920       50.86614
H         41.47474       92.63812       55.29869
H         40.98545       91.79790       53.79065
H         42.73026       91.86794       54.27290
N         42.21659       91.66530       49.09866
C         42.81870       91.63554       47.77117
C         42.05542       90.76968       46.79097
O         42.52249       90.70152       45.66133
C         44.30569       91.19462       47.86515
C         44.50450       89.80071       48.46977
O         45.02951       92.12038       48.63171
H         42.17992       90.78550       49.63122
H         42.82260       92.65402       47.32288
H         44.73728       91.15664       46.83517
H         45.32267       92.83966       48.01386
H         44.16688       89.76933       49.52603
H         43.95435       89.03469       47.88481
H         45.58503       89.54428       48.45719
N         40.89620       90.10285       47.09149
C         40.15674       89.35473       46.06838
C         39.70337       90.34181       45.00186
O         38.76739       91.09542       45.23443
C         38.96837       88.53669       46.64151
C         39.42899       87.46979       47.64754
O         37.97971       89.36426       47.20793
H         40.52998       90.14381       48.05301
H         40.86344       88.62060       45.61816
H         38.49749       87.99070       45.79472
H         38.32375       89.72428       48.06531
H         39.90572       87.93257       48.53688
H         38.55650       86.87388       47.98918
H         40.15986       86.78259       47.17078
N         40.48823       90.52680       43.90158
C         40.42581       91.67477       42.99853
C         40.59590       92.99065       43.76260
O         40.50574       93.00453       44.98120
C         39.17042       91.67088       42.10984
C         39.03968       90.34315       41.34717
C         37.90381       90.38954       40.32110
C         37.73813       89.02621       39.63501
N         36.70647       89.08063       38.60055
H         41.27995       89.88201       43.75279
H         41.30675       91.58584       42.32255
H         39.26335       92.50509       41.37968
H         38.25517       91.83831       42.71723
H         38.85091       89.52671       42.07856
H         39.98790       90.12533       40.80713
H         38.14303       91.16349       39.55845
H         36.94960       90.66223       40.82187
H         37.45651       88.26599       40.39803
H         38.70068       88.71571       39.17065
H         36.99262       89.74878       37.84824
H         36.59285       88.12955       38.18111
H         35.79393       89.38172       39.01301
N         40.90927       94.14359       43.10634
C         41.09779       95.41197       43.81233
C         42.10568       95.27654       44.95690
O         41.72037       95.58201       46.07701
C         41.48260       96.56420       42.85932
C         40.38211       96.87970       41.83558
C         40.79204       98.02580       40.95577
O         40.06384       99.15822       40.93845
O         41.78240       97.93452       40.24725
H         41.04516       94.10366       42.08621
H         40.12480       95.70153       44.27353
H         42.41602       96.33193       42.31827
H         41.65049       97.48006       43.47011
H         39.44673       97.14647       42.37405
H         40.17749       96.00057       41.19063
N         43.37671       94.79591       44.82781
C         43.98753       94.33639       43.60185
H         45.00718       93.95477       43.82319
H         43.40448       93.50368       43.16203
H         44.10420       95.16546       42.88364
H         43.94852       94.71710       45.67934
Ca        41.91344       97.25790       48.92570
O         41.05845       98.74309       46.31573
H         40.07058       98.70321       46.26202
H         41.24516       99.54474       46.86633
O         39.03849       95.88204       47.43719
H         39.06620       94.95567       47.08812
H         38.13980       96.21437       47.18749
O         44.01854       99.47303       48.14876
H         43.76739       99.36350       49.09960
H         44.25918       98.56013       47.85158

Ca 1.0



