%chk=apoCaM-CA-Ng.loop4.water5.frame690.chk
%nprocshared=20
%mem=10GB
%nosave
#b3lyp/svp scf=(tight,noincore,xqc) Test 
#IOP(5/87=12) Density=Current Pop=(MK,readradii) iop(6/33=2) iop(6/42=6)

apoCaM-CA-Ng.loop4.water5.frame690 

   -3  1 
C         88.68073       75.38375      108.05200
C         89.13507       75.29120      109.47744
O         90.16431       75.84901      109.82787
H         87.67089       75.84165      108.01302
H         89.37174       76.00044      107.44544
H         88.63325       74.36254      107.61658
N         88.38887       74.57797      110.36225
C         88.71787       74.37646      111.76813
C         88.75552       75.71006      112.49308
O         89.72088       76.01202      113.18174
C         90.01996       73.55183      111.93923
C         90.00463       72.31586      111.07977
O         89.98735       71.08817      111.62210
O         90.00920       72.42006      109.86359
H         87.52075       74.13736      110.01946
H         87.88873       73.78012      112.21124
H         90.12126       73.27108      113.01085
H         90.91395       74.14784      111.65561
N         87.72364       76.58504      112.32901
C         87.71368       77.92606      112.91455
C         87.24849       77.84271      114.37695
O         86.72028       76.80000      114.73992
C         86.85913       78.89609      112.03078
C         85.34616       78.54621      112.08061
C         87.41988       78.92075      110.59112
C         84.47144       79.45909      111.22186
H         86.96816       76.30488      111.68929
H         88.75339       78.30459      112.86503
H         86.96741       79.92730      112.40760
H         85.00084       78.64583      113.13227
H         85.15711       77.50398      111.75636
H         88.49933       79.18433      110.60620
H         87.30319       77.93975      110.08582
H         86.91331       79.69217      109.97685
H         84.69750       79.32204      110.14417
H         83.40475       79.19077      111.37309
H         84.61909       80.52242      111.50347
N         87.38902       78.84026      115.30888
C         88.07036       80.12091      115.11183
C         89.53952       79.95111      114.72908
O         90.12246       80.89009      114.20564
C         87.91832       81.04505      116.34632
C         88.57685       80.52632      117.60262
O         89.55267       81.24305      118.19093
O         88.21040       79.48276      118.11891
H         86.98090       78.64918      116.23550
H         87.55844       80.64374      114.28680
H         86.83631       81.20138      116.55280
H         88.35732       82.03667      116.10214
N         90.18469       78.76522      114.92138
C         91.50113       78.44716      114.39957
C         92.60906       79.33044      114.90483
O         92.66199       79.62265      116.09092
H         89.70127       78.00239      115.41599
H         91.47216       78.46401      113.28805
H         91.74926       77.40843      114.70362
N         93.60821       79.68544      114.04736
C         94.79738       80.42566      114.44053
C         94.96476       81.71104      113.64056
O         95.93145       82.41275      113.89913
C         96.03152       79.48609      114.36823
C         96.24938       78.78951      113.04954
O         96.16790       77.44666      112.98029
O         96.54184       79.41788      112.05024
H         93.55849       79.35589      113.07037
H         94.72639       80.74414      115.50371
H         95.87863       78.69144      115.13040
H         96.95533       80.03813      114.64757
N         94.05714       82.12997      112.70277
C         94.20739       83.39061      111.98493
C         95.38074       83.40491      111.02124
O         95.68711       84.46601      110.49801
H         93.20726       81.57934      112.51756
H         94.32820       84.20338      112.73426
H         93.28873       83.60672      111.39778
N         96.06743       82.26498      110.71871
C         97.23734       82.18904      109.85037
C         96.93114       82.51775      108.39470
O         97.86938       82.60373      107.61475
C         98.42770       82.99178      110.43085
C         98.76786       82.50174      111.85325
C        100.01533       83.10612      112.44406
N        100.39618       82.75328      113.69448
O        100.69028       83.90156      111.80715
H         95.74968       81.38362      111.12622
H         97.58259       81.13064      109.82894
H         98.21694       84.08221      110.44556
H         99.31280       82.81689      109.78030
H         98.90741       81.39886      111.83901
H         97.92374       82.74462      112.52417
H         99.83623       82.08399      114.24430
H        101.25026       83.14664      114.11625
N         95.64673       82.59555      107.93066
C         95.31244       82.77852      106.51858
C         94.66479       81.52679      105.92779
O         94.39613       81.53063      104.73343
C         94.42357       84.03492      106.31351
C         93.05563       83.92176      107.00861
C         95.15527       85.29908      106.78488
H         94.86649       82.45615      108.58555
H         96.24006       82.93457      105.92458
H         94.23734       84.14741      105.22184
H         92.50363       83.03109      106.64113
H         93.16148       83.84984      108.11057
H         92.44149       84.81857      106.78126
H         95.35956       85.25691      107.87529
H         96.12070       85.40596      106.24553
H         94.54015       86.19952      106.57511
N         94.42786       80.40775      106.67682
C         93.91147       79.15650      106.13089
C         94.97774       78.08109      106.27400
O         95.95131       78.29263      106.98893
C         92.62374       78.77595      106.89499
C         92.06094       77.43513      106.49593
N         92.03444       76.41428      107.38581
O         91.64287       77.26286      105.36066
H         94.66476       80.40412      107.67936
H         93.69069       79.26598      105.04603
H         91.84773       79.55700      106.74020
H         92.86569       78.75536      107.98010
H         92.39057       76.53930      108.34506
H         91.67154       75.48878      107.11519
N         94.89450       76.91578      105.56761
C         95.92741       75.88795      105.66558
C         95.80496       74.84144      104.55571
O         94.82054       74.84668      103.82707
C         95.82361       75.19667      107.05281
C         97.11559       74.54801      107.46376
C         97.25869       73.15284      107.50468
C         98.20000       75.36448      107.82387
C         98.48169       72.58545      107.87880
C         99.41225       74.79735      108.21557
C         99.56207       73.40800      108.23743
O        100.74607       72.87771      108.60259
H         94.11638       76.80861      104.90189
H         96.90288       76.40722      105.53082
H         94.97631       74.47450      107.02320
H         95.57878       75.91985      107.85984
H         96.43569       72.50897      107.22627
H         98.09952       76.44338      107.81244
H         98.58907       71.50855      107.88869
H        100.23567       75.44088      108.49898
H        100.89881       71.92271      108.62026
N         96.78050       73.90492      104.36762
C         96.69228       72.84366      103.37300
C         96.81136       71.48787      104.07558
O         97.89010       70.91009      104.06250
C         97.77197       73.03187      102.28751
C         97.55717       72.03455      101.13057
C         98.59597       72.19809      100.06370
O         98.26791       72.49999       98.92735
O         99.89452       71.98540      100.34887
H         97.63226       73.94371      104.94572
H         95.73904       72.90842      102.81919
H         98.78633       72.92020      102.72957
H         97.68637       74.06059      101.87247
H         96.54673       72.20164      100.69274
H         97.60198       70.98762      101.49629
N         95.77474       70.90014      104.74298
C         94.41937       71.44030      104.79839
C         93.77789       71.43533      103.41908
O         94.32820       70.85736      102.48963
C         93.54083       70.61009      105.75782
C         94.03565       70.68109      107.20985
C         93.17729       69.83692      108.10158
O         93.10797       68.63094      107.92487
O         92.48870       70.40535      109.10795
H         95.97056       70.00687      105.22198
H         94.46733       72.48240      105.17701
H         93.52550       69.55229      105.40987
H         92.49982       70.99679      105.73799
H         93.99844       71.73797      107.55300
H         95.08115       70.31985      107.29717
N         92.60866       72.09752      103.20975
C         91.98851       72.15969      101.90472
H         91.06440       72.77310      101.95353
H         92.68644       72.62941      101.17790
H         91.72624       71.13791      101.55844
H         92.15909       72.59731      103.99159
Ca        89.82332       69.40860      110.11904
O         87.97049       68.13443      112.00768
H         87.63892       68.85734      112.59722
H         88.90064       67.97620      112.30911
O         89.48621       70.82795      107.16452
H         90.28796       70.62946      106.61953
H         89.42021       71.81576      107.15720
O         88.53963       67.65722      107.80649
H         87.70686       68.06149      107.45535
H         88.84093       67.04390      107.08996
O         90.91670       66.74533      109.60986
H         91.78249       67.21233      109.71911
H         91.14087       65.91551      109.12003
O         92.14713       69.06301      112.04493
H         92.02372       68.11786      112.31185
H         92.90240       69.04410      111.40546

Ca 1.0



