%chk=apoCaM-CA-Ng.loop2.water3.frame26.chk
%nprocshared=20
%mem=10GB
%nosave
#b3lyp/svp scf=(tight,noincore,xqc) Test 
#IOP(5/87=12) Density=Current Pop=(MK,readradii) iop(6/33=2) iop(6/42=6)

apoCaM-CA-Ng.loop2.water3.frame26 

   -2  1 
C         65.79330       37.99571       56.58560
C         64.87594       37.51384       57.66985
O         65.32135       36.79689       58.55469
H         66.82392       37.60923       56.73952
H         65.42341       37.63678       55.60196
H         65.82339       39.10511       56.58247
N         63.56235       37.87735       57.66478
C         62.61530       37.42028       58.67820
C         62.42182       35.90701       58.61803
O         62.08139       35.31918       59.63458
C         61.26427       38.14178       58.50665
C         60.29289       37.80252       59.60248
O         60.59614       38.08231       60.88472
O         59.22251       37.28069       59.33510
H         63.23516       38.51160       56.91874
H         63.03457       37.69976       59.67191
H         60.83067       37.87881       57.51592
H         61.43209       39.24055       58.53053
N         62.63302       35.21538       57.45793
C         62.54907       33.76405       57.31877
C         63.57180       33.09247       58.21806
O         63.25186       32.17812       58.96528
C         61.11462       33.26290       57.52969
H         62.90839       35.73711       56.61266
H         62.83372       33.51562       56.27195
H         60.76079       33.46260       58.56174
H         60.43460       33.77424       56.81540
H         61.06114       32.16972       57.34207
N         64.84480       33.57113       58.20557
C         65.95222       33.10801       59.02395
C         65.56198       32.99393       60.50370
O         65.78983       31.95471       61.11016
C         66.54217       31.79014       58.44294
C         67.93825       31.53981       58.95543
O         68.53014       30.50366       58.70091
O         68.54786       32.52376       59.63515
H         65.04412       34.38013       57.59799
H         66.72767       33.90017       58.92389
H         66.62188       31.85907       57.33692
H         65.86417       30.94394       58.68922
N         64.89708       34.00802       61.12903
C         64.34388       33.86764       62.46992
C         65.31279       34.17652       63.59359
O         64.90758       34.03243       64.73892
H         64.63571       34.84049       60.58119
H         63.91463       32.84754       62.59146
H         63.49717       34.57875       62.58236
N         66.57872       34.64132       63.37373
C         67.47956       35.02237       64.46911
C         66.91505       36.21116       65.25070
O         65.85674       36.72245       64.90886
C         68.91071       35.33775       63.94223
C         69.66136       34.09819       63.41662
N         69.81804       33.08498       64.45422
O         68.97158       33.56017       62.34182
H         66.89912       34.75412       62.40244
H         67.56381       34.17272       65.18214
H         69.54531       35.74069       64.75561
H         68.85798       36.11802       63.15173
H         70.40899       33.47984       65.22008
H         70.33698       32.27483       64.04608
N         67.57854       36.68534       66.34342
C         67.06944       37.72397       67.22416
C         67.93816       38.95732       67.17764
O         69.15422       38.83968       67.24448
H         68.48149       36.26318       66.60427
H         67.07649       37.31488       68.25643
H         66.01795       37.99621       66.98819
N         67.36507       40.19570       67.11421
C         68.14357       41.43225       67.07143
C         68.76997       41.65358       65.69371
O         69.57599       42.56030       65.55455
C         67.24293       42.62627       67.49061
C         67.99564       43.95426       67.64517
O         66.19521       42.78276       66.56720
H         66.33547       40.25697       67.15262
H         68.94996       41.35089       67.83543
H         66.83216       42.36433       68.49570
H         65.42142       43.15365       67.06666
H         68.38306       44.32306       66.67492
H         67.30333       44.72871       68.03706
H         68.83707       43.84058       68.36124
N         68.43860       40.86886       64.62663
C         68.98629       41.05135       63.28548
C         69.81280       39.83621       62.91024
O         69.90216       38.90399       63.69700
C         67.83912       41.32309       62.25600
C         66.82416       40.14745       62.16994
C         67.14374       42.65572       62.58796
C         65.82370       40.28261       61.01954
H         67.77018       40.09923       64.75319
H         69.68286       41.91752       63.25521
H         68.30304       41.44582       61.25454
H         66.25580       40.05027       63.11892
H         67.37730       39.19997       61.99643
H         66.39809       42.92595       61.81373
H         66.63440       42.60423       63.57333
H         67.89156       43.47692       62.61574
H         65.16242       39.39000       61.00105
H         65.17867       41.17563       61.13935
H         66.36091       40.34072       60.04907
N         70.43648       39.77908       61.69814
C         71.17948       38.61077       61.24734
C         72.62231       38.96932       60.85215
O         73.35286       38.07721       60.44296
C         70.35089       37.97491       60.10941
C         70.69756       36.54522       59.78960
O         70.02954       35.94090       58.96571
O         71.68611       35.89939       60.43386
H         70.32757       40.56337       61.03909
H         71.23134       37.86127       62.06642
H         70.39789       38.61390       59.20033
H         69.29003       37.93951       60.44636
N         73.11957       40.24026       60.98215
C         74.50111       40.61178       60.66562
C         74.77693       40.42440       59.17652
O         74.13167       41.10957       58.39986
C         74.73071       42.10307       61.02120
C         76.12656       42.58550       60.69970
C         77.23316       42.12586       61.43239
C         76.32885       43.51191       59.66019
C         78.51876       42.59039       61.13176
C         77.61537       43.96440       59.35628
C         78.70959       43.50676       60.09342
H         72.50834       40.98011       61.35581
H         75.16877       39.99190       61.29580
H         74.52253       42.28688       62.09751
H         73.99239       42.70368       60.44355
H         77.09916       41.41910       62.24131
H         75.49269       43.87765       59.07699
H         79.36817       42.24169       61.70439
H         77.76284       44.67154       58.54983
H         79.70450       43.86365       59.86000
N         75.72746       39.57069       58.67997
C         76.04196       39.42965       57.25882
C         74.91119       38.99015       56.32508
O         75.18245       38.88193       55.13723
C         77.15018       38.36900       57.24208
C         77.85788       38.64068       58.54721
C         76.68007       38.84176       59.49546
H         76.43554       40.41273       56.91409
H         76.69500       37.35523       57.33452
H         77.79443       38.39020       56.33672
H         78.58507       37.86564       58.86889
H         78.39607       39.61200       58.43902
H         76.22397       37.87714       59.80727
H         77.06034       39.41286       60.36746
N         73.64058       38.72463       56.75621
C         72.55698       38.30804       55.86346
C         71.45368       39.35953       55.77093
O         70.51402       39.14446       55.01670
C         71.94832       36.99323       56.38003
C         72.94951       35.83342       56.42212
C         72.32480       34.62257       57.05542
O         71.33484       34.10467       56.56256
O         72.85320       34.10914       58.18243
H         73.41219       38.80716       57.75478
H         72.93254       38.15308       54.82856
H         71.08672       36.69394       55.74258
H         71.57468       37.18850       57.40145
H         73.83838       36.12265       57.02220
H         73.28075       35.58478       55.39110
N         71.48558       40.51696       56.48769
C         70.45052       41.52114       56.39576
H         69.47353       41.08934       56.69763
H         70.68924       42.36853       57.07492
H         70.39014       41.90727       55.35671
H         72.25808       40.70889       57.12560
Ca        70.42371       32.76924       60.79813
O         73.32498       33.67184       61.57494
H         73.65758       34.59596       61.70048
H         74.14351       33.11639       61.54267
O         71.65265       30.23406       61.75782
H         72.38929       30.35914       61.10849
H         71.78599       30.95625       62.42190
O         72.44625       31.22550       58.47417
H         72.85157       31.31306       57.57496
H         71.73649       30.54456       58.36274

Ca 1.0



